# File generated by Flopy version 3.10.0.dev3 on 06/15/2025 at 07:20:24.
BEGIN options
  XORIGIN   90000.00000000
  YORIGIN       0.00000000
END options

BEGIN dimensions
  NLAY  2
  NROW  11
  NCOL  9
END dimensions

BEGIN griddata
  delr
    INTERNAL  FACTOR  1.0
      5000.00000000    5000.00000000    5000.00000000    5000.00000000    5000.00000000    5000.00000000    5000.00000000    5000.00000000    5000.00000000
  delc
    INTERNAL  FACTOR  1.0
      5000.00000000    5000.00000000    5000.00000000    5000.00000000    5000.00000000    5000.00000000    5000.00000000    5000.00000000    5000.00000000    5000.00000000
      5000.00000000
  top
    INTERNAL  FACTOR  1.0
        51.75616074      47.98077774      44.24906921      40.86238098      37.66863632      34.64134598      31.66666794      29.44444466      30.80040932
        49.71608353      46.67704010      43.68365860      40.47543335      37.46049500      34.44444275      31.86635780      28.88888931      26.11111069
        48.33333206      45.55555725      42.77777863      40.00000000      37.22222137      36.15496063      31.66666794      28.88888931      26.11111069
        48.59815216      45.55555725      45.00000000      46.92776108      46.42558670      44.97849274      42.73672867      40.36610413      37.95243073
        48.33333206      47.22222137      50.96562576      53.32507324      53.78060532      52.81556320      51.26879883      49.36273956      47.22244263
        53.72668076      55.88869858      57.92779922      59.42660522      59.97024155      59.28887177      58.08128738      56.46199417      54.50263214
        61.03429413      62.43316269      63.73913574      64.69684601      65.06093597      64.50473022      63.47613907      62.02780533      60.18647766
        66.33112335      67.31683350      68.22325134      68.87299347      69.05139923      68.54328156      67.61442566      66.27883911      64.52954865
        69.87551880      70.68721771      71.39953613      71.88513184      71.93553162      71.44788361      70.58512115      69.34431458      67.69616699
        71.85427856      72.64981079      73.31381989      73.73072815      73.71149445      73.23657227      72.42575073      71.28643799      69.78900909
        72.81832886      74.00769043      74.07347107      74.42408752      74.37804413      73.90922546      73.12643433      72.08648682      71.51026917
  botm  LAYERED
    INTERNAL  FACTOR  1.0
          46.75616074      42.98077774      39.24906921      35.86238098      32.66863632      29.64134598      26.66666794      24.44444466      25.80040932
          44.71608353      41.67704010      38.68365860      35.47543335      32.46049500      29.44444275      26.86635780      23.88888931      21.11111069
          43.33333206      40.55555725      37.77777863      35.00000000      32.22222137      31.15496063      26.66666794      23.88888931      21.11111069
          43.59815216      40.55555725      40.00000000      41.92776108      41.42558670      39.97849274      37.73672867      35.36610413      32.95243073
          43.33333206      42.22222137      45.96562576      48.32507324      48.78060532      47.81556320      46.26879883      44.36273956      42.22244263
          48.72668076      50.88869858      52.92779922      54.42660522      54.97024155      54.28887177      53.08128738      51.46199417      49.50263214
          56.03429413      57.43316269      58.73913574      59.69684601      60.06093597      59.50473022      58.47613907      57.02780533      55.18647766
          61.33112335      62.31683350      63.22325134      63.87299347      64.05139923      63.54328156      62.61442566      61.27883911      59.52954865
          64.87551880      65.68721771      66.39953613      66.88513184      66.93553162      66.44788361      65.58512115      64.34431458      62.69616699
          66.85427856      67.64981079      68.31381989      68.73072815      68.71149445      68.23657227      67.42575073      66.28643799      64.78900909
          67.81832886      69.00769043      69.07347107      69.42408752      69.37804413      68.90922546      68.12643433      67.08648682      66.51026917
    INTERNAL  FACTOR  1.0
          39.25616074      35.48077774      31.74906921      28.36238098      25.16863632      22.14134598      19.16666794      16.94444466      18.30040932
          37.21608353      34.17704010      31.18365860      27.97543335      24.96049500      21.94444275      19.36635780      16.38888931      13.61111069
          35.83333206      33.05555725      30.27777863      27.50000000      24.72222137      23.65496063      19.16666794      16.38888931      13.61111069
          36.09815216      33.05555725      32.50000000      34.42776108      33.92558670      32.47849274      30.23672867      27.86610413      25.45243073
          35.83333206      34.72222137      38.46562576      40.82507324      41.28060532      40.31556320      38.76879883      36.86273956      34.72244263
          41.22668076      43.38869858      45.42779922      46.92660522      47.47024155      46.78887177      45.58128738      43.96199417      42.00263214
          48.53429413      49.93316269      51.23913574      52.19684601      52.56093597      52.00473022      50.97613907      49.52780533      47.68647766
          53.83112335      54.81683350      55.72325134      56.37299347      56.55139923      56.04328156      55.11442566      53.77883911      52.02954865
          57.37551880      58.18721771      58.89953613      59.38513184      59.43553162      58.94788361      58.08512115      56.84431458      55.19616699
          59.35427856      60.14981079      60.81381989      61.23072815      61.21149445      60.73657227      59.92575073      58.78643799      57.28900909
          60.31832886      61.50769043      61.57347107      61.92408752      61.87804413      61.40922546      60.62643433      59.58648682      59.01026917
  idomain
    INTERNAL  FACTOR  1
      1  1  1  1  1  1  1  1  1
      1  1  1  1  1  1  1  1  1
      1  1  1  1  1  1  1  1  1
      1  1  1  1  1  1  1  1  1
      1  1  1  1  1  1  1  1  1
      1  1  1  1  1  1  1  1  1
      1  1  1  1  1  1  1  1  1
      1  1  1  1  1  1  1  1  1
      1  1  1  1  1  1  1  1  1
      1  1  1  1  1  1  1  1  1
      0  1  1  1  1  1  1  1  1
      1  1  1  1  1  1  1  1  1
      1  1  1  1  1  1  1  1  1
      1  1  1  1  1  1  1  1  1
      1  1  1  1  1  1  1  1  1
      1  1  1  1  1  1  1  1  1
      1  1  1  1  1  1  1  1  1
      1  1  1  1  1  1  1  1  1
      1  1  1  1  1  1  1  1  1
      1  1  1  1  1  1  1  1  1
      1  1  1  1  1  1  1  1  1
      0  1  1  1  1  1  1  1  1
END griddata

