# File generated by Flopy version 3.10.0.dev3 on 06/16/2025 at 06:44:22.
BEGIN options
END options

BEGIN griddata
  strt  LAYERED
    INTERNAL  FACTOR  1.0
          51.75616074      47.98077774      44.24906921      40.86238098      37.66863632      34.64134598      31.66666794      29.44444466      30.80040932
          49.71608353      46.67704010      43.68365860      40.47543335      37.46049500      34.44444275      31.86635780      28.88888931      26.11111069
          48.33333206      45.55555725      42.77777863      40.00000000      37.22222137      36.15496063      31.66666794      28.88888931      26.11111069
          48.59815216      45.55555725      45.00000000      46.92776108      46.42558670      44.97849274      42.73672867      40.36610413      37.95243073
          48.33333206      47.22222137      50.96562576      53.32507324      53.78060532      52.81556320      51.26879883      49.36273956      47.22244263
          53.72668076      55.88869858      57.92779922      59.42660522      59.97024155      59.28887177      58.08128738      56.46199417      54.50263214
          61.03429413      62.43316269      63.73913574      64.69684601      65.06093597      64.50473022      63.47613907      62.02780533      60.18647766
          66.33112335      67.31683350      68.22325134      68.87299347      69.05139923      68.54328156      67.61442566      66.27883911      64.52954865
          69.87551880      70.68721771      71.39953613      71.88513184      71.93553162      71.44788361      70.58512115      69.34431458      67.69616699
          71.85427856      72.64981079      73.31381989      73.73072815      73.71149445      73.23657227      72.42575073      71.28643799      69.78900909
          72.81832886      74.00769043      74.07347107      74.42408752      74.37804413      73.90922546      73.12643433      72.08648682      71.51026917
    INTERNAL  FACTOR  1.0
          51.75616074      47.98077774      44.24906921      40.86238098      37.66863632      34.64134598      31.66666794      29.44444466      30.80040932
          49.71608353      46.67704010      43.68365860      40.47543335      37.46049500      34.44444275      31.86635780      28.88888931      26.11111069
          48.33333206      45.55555725      42.77777863      40.00000000      37.22222137      36.15496063      31.66666794      28.88888931      26.11111069
          48.59815216      45.55555725      45.00000000      46.92776108      46.42558670      44.97849274      42.73672867      40.36610413      37.95243073
          48.33333206      47.22222137      50.96562576      53.32507324      53.78060532      52.81556320      51.26879883      49.36273956      47.22244263
          53.72668076      55.88869858      57.92779922      59.42660522      59.97024155      59.28887177      58.08128738      56.46199417      54.50263214
          61.03429413      62.43316269      63.73913574      64.69684601      65.06093597      64.50473022      63.47613907      62.02780533      60.18647766
          66.33112335      67.31683350      68.22325134      68.87299347      69.05139923      68.54328156      67.61442566      66.27883911      64.52954865
          69.87551880      70.68721771      71.39953613      71.88513184      71.93553162      71.44788361      70.58512115      69.34431458      67.69616699
          71.85427856      72.64981079      73.31381989      73.73072815      73.71149445      73.23657227      72.42575073      71.28643799      69.78900909
          72.81832886      74.00769043      74.07347107      74.42408752      74.37804413      73.90922546      73.12643433      72.08648682      71.51026917
END griddata

