# File generated by Flopy version 3.10.0.dev3 on 06/15/2025 at 07:20:24.
BEGIN options
  XORIGIN       0.00000000
  YORIGIN       0.00000000
END options

BEGIN dimensions
  NLAY  2
  NROW  11
  NCOL  9
END dimensions

BEGIN griddata
  delr
    INTERNAL  FACTOR  1.0
      5000.00000000    5000.00000000    5000.00000000    5000.00000000    5000.00000000    5000.00000000    5000.00000000    5000.00000000    5000.00000000
  delc
    INTERNAL  FACTOR  1.0
      5000.00000000    5000.00000000    5000.00000000    5000.00000000    5000.00000000    5000.00000000    5000.00000000    5000.00000000    5000.00000000    5000.00000000
      5000.00000000
  top
    INTERNAL  FACTOR  1.0
       106.46109772     105.27696991     103.09618378      99.99404907      96.17173004      92.00321960      87.90203857      84.00646973      80.23651886
       106.42813110     105.17642975     103.03238678     100.09864044      96.53376770      92.54634857      88.38343811      84.23432159      80.21315002
       106.00353241     104.64302063     102.38244629      99.27772522      95.42691803      91.10030365      86.60391235      82.13350677      77.94239044
       105.27056122     103.76230621     101.33724213      97.93894958      93.42872620      88.33638763      83.40344238      78.88888550      76.11111450
       105.08039856     102.44425964      99.99815369      96.43991089      90.91739655      84.44444275      81.66666412      79.63040924      78.16852570
       103.59868622     101.67651367      98.65974426      95.12747192      90.66130066      85.33496857      83.91230011      82.54405212      80.83419800
       103.59868622     100.96144104      98.65974426      94.86888123      91.04132080      88.24512482      86.25640869      84.49988556      82.51707458
       100.96144104      98.65974426      97.10437775      92.69839478      91.39332581      88.69767761      87.02427673      85.33779144      83.17240143
       100.96144104      98.65974426      95.37735748      92.69839478      90.28887939      88.20022583      87.21867371      86.03322601      82.92853546
        98.65974426      97.10437775      92.69839478      91.39332581      90.28887939      88.20022583      86.23340607      84.74906158      82.92853546
        98.65974426      92.69839478      92.69839478      90.28887939      88.20022583      87.21867371      86.23340607      84.74906158      81.32525635
  botm  LAYERED
    INTERNAL  FACTOR  1.0
         101.46109772     100.27696991      98.09618378      94.99404907      91.17173004      87.00321960      82.90203857      79.00646973      75.23651886
         101.42813110     100.17642975      98.03238678      95.09864044      91.53376770      87.54634857      83.38343811      79.23432159      75.21315002
         101.00353241      99.64302063      97.38244629      94.27772522      90.42691803      86.10030365      81.60391235      77.13350677      72.94239044
         100.27056122      98.76230621      96.33724213      92.93894958      88.42872620      83.33638763      78.40344238      73.88888550      71.11111450
         100.08039856      97.44425964      94.99815369      91.43991089      85.91739655      79.44444275      76.66666412      74.63040924      73.16852570
          98.59868622      96.67651367      93.65974426      90.12747192      85.66130066      80.33496857      78.91230011      77.54405212      75.83419800
          98.59868622      95.96144104      93.65974426      89.86888123      86.04132080      83.24512482      81.25640869      79.49988556      77.51707458
          95.96144104      93.65974426      92.10437775      87.69839478      86.39332581      83.69767761      82.02427673      80.33779144      78.17240143
          95.96144104      93.65974426      90.37735748      87.69839478      85.28887939      83.20022583      82.21867371      81.03322601      77.92853546
          93.65974426      92.10437775      87.69839478      86.39332581      85.28887939      83.20022583      81.23340607      79.74906158      77.92853546
          93.65974426      87.69839478      87.69839478      85.28887939      83.20022583      82.21867371      81.23340607      79.74906158      76.32525635
    INTERNAL  FACTOR  1.0
          93.96109772      92.77696991      90.59618378      87.49404907      83.67173004      79.50321960      75.40203857      71.50646973      67.73651886
          93.92813110      92.67642975      90.53238678      87.59864044      84.03376770      80.04634857      75.88343811      71.73432159      67.71315002
          93.50353241      92.14302063      89.88244629      86.77772522      82.92691803      78.60030365      74.10391235      69.63350677      65.44239044
          92.77056122      91.26230621      88.83724213      85.43894958      80.92872620      75.83638763      70.90344238      66.38888550      63.61111450
          92.58039856      89.94425964      87.49815369      83.93991089      78.41739655      71.94444275      69.16666412      67.13040924      65.66852570
          91.09868622      89.17651367      86.15974426      82.62747192      78.16130066      72.83496857      71.41230011      70.04405212      68.33419800
          91.09868622      88.46144104      86.15974426      82.36888123      78.54132080      75.74512482      73.75640869      71.99988556      70.01707458
          88.46144104      86.15974426      84.60437775      80.19839478      78.89332581      76.19767761      74.52427673      72.83779144      70.67240143
          88.46144104      86.15974426      82.87735748      80.19839478      77.78887939      75.70022583      74.71867371      73.53322601      70.42853546
          86.15974426      84.60437775      80.19839478      78.89332581      77.78887939      75.70022583      73.73340607      72.24906158      70.42853546
          86.15974426      80.19839478      80.19839478      77.78887939      75.70022583      74.71867371      73.73340607      72.24906158      68.82525635
  idomain
    INTERNAL  FACTOR  1
      1  1  1  1  1  1  1  1  1
      1  1  1  1  1  1  1  1  1
      1  1  1  1  1  1  1  1  1
      1  1  1  1  1  1  1  1  1
      1  1  1  1  1  1  1  1  1
      0  0  1  1  1  1  1  1  1
      0  0  0  1  1  1  1  1  1
      0  0  0  0  0  1  1  1  1
      0  0  0  0  0  0  0  0  1
      0  0  0  0  0  0  0  0  0
      0  0  0  0  0  0  0  0  0
      1  1  1  1  1  1  1  1  1
      1  1  1  1  1  1  1  1  1
      1  1  1  1  1  1  1  1  1
      1  1  1  1  1  1  1  1  1
      1  1  1  1  1  1  1  1  1
      0  0  1  1  1  1  1  1  1
      0  0  0  1  1  1  1  1  1
      0  0  0  0  0  1  1  1  1
      0  0  0  0  0  0  0  0  1
      0  0  0  0  0  0  0  0  0
      0  0  0  0  0  0  0  0  0
END griddata

