# File generated by Flopy version 3.10.0.dev3 on 06/15/2025 at 07:20:24.
BEGIN options
  XORIGIN   45000.00000000
  YORIGIN       0.00000000
END options

BEGIN dimensions
  NLAY  2
  NROW  11
  NCOL  9
END dimensions

BEGIN griddata
  delr
    INTERNAL  FACTOR  1.0
      5000.00000000    5000.00000000    5000.00000000    5000.00000000    5000.00000000    5000.00000000    5000.00000000    5000.00000000    5000.00000000
  delc
    INTERNAL  FACTOR  1.0
      5000.00000000    5000.00000000    5000.00000000    5000.00000000    5000.00000000    5000.00000000    5000.00000000    5000.00000000    5000.00000000    5000.00000000
      5000.00000000
  top
    INTERNAL  FACTOR  1.0
        76.48960114      72.60894012      68.40460968      65.00000000      64.44444275      64.23639679      62.07209015      59.04927826      55.47606659
        76.34709930      72.61635590      69.01802826      65.21201324      62.22222137      61.23895645      59.22768021      56.48804092      53.10843658
        74.02459717      70.55555725      67.77777863      65.00000000      62.22222137      59.44444275      56.66666794      53.88888931      51.11111069
        73.33333588      71.18558502      69.01943970      66.50132751      63.88359070      60.85033417      57.60947418      54.63008881      51.83272171
        76.33744812      74.09729004      71.45140076      68.46939087      65.27632904      61.66249084      58.00939178      54.48006058      51.11111069
        78.66692352      75.97972870      72.73696899      68.52391815      64.10968018      59.84117126      56.66666794      53.88888931      52.22222137
        80.07183838      76.96694183      72.72767639      65.95950317      62.22222137      59.44444275      58.88888931      59.47963333      59.86957550
        80.65895081      77.39077759      72.74407959      65.00000000      63.88888931      64.17047882      64.50457001      64.89014435      65.47366333
        80.49723053      76.92732239      73.68440247      70.01129150      68.43979645      68.15058136      68.17131042      68.50404358      69.10647583
        79.56042480      76.92732239      74.19193268      71.25926971      70.07136536      69.84031677      69.88458252      70.33023071      71.04479218
        79.56042480      76.92732239      74.19193268      71.48468018      69.99037933      69.93244934      70.30052185      71.39093018      71.77478790
  botm  LAYERED
    INTERNAL  FACTOR  1.0
          71.48960114      67.60894012      63.40460968      60.00000000      59.44444275      59.23639679      57.07209015      54.04927826      50.47606659
          71.34709930      67.61635590      64.01802826      60.21201324      57.22222137      56.23895645      54.22768021      51.48804092      48.10843658
          69.02459717      65.55555725      62.77777863      60.00000000      57.22222137      54.44444275      51.66666794      48.88888931      46.11111069
          68.33333588      66.18558502      64.01943970      61.50132751      58.88359070      55.85033417      52.60947418      49.63008881      46.83272171
          71.33744812      69.09729004      66.45140076      63.46939087      60.27632904      56.66249084      53.00939178      49.48006058      46.11111069
          73.66692352      70.97972870      67.73696899      63.52391815      59.10968018      54.84117126      51.66666794      48.88888931      47.22222137
          75.07183838      71.96694183      67.72767639      60.95950317      57.22222137      54.44444275      53.88888931      54.47963333      54.86957550
          75.65895081      72.39077759      67.74407959      60.00000000      58.88888931      59.17047882      59.50457001      59.89014435      60.47366333
          75.49723053      71.92732239      68.68440247      65.01129150      63.43979645      63.15058136      63.17131042      63.50404358      64.10647583
          74.56042480      71.92732239      69.19193268      66.25926971      65.07136536      64.84031677      64.88458252      65.33023071      66.04479218
          74.56042480      71.92732239      69.19193268      66.48468018      64.99037933      64.93244934      65.30052185      66.39093018      66.77478790
    INTERNAL  FACTOR  1.0
          63.98960114      60.10894012      55.90460968      52.50000000      51.94444275      51.73639679      49.57209015      46.54927826      42.97606659
          63.84709930      60.11635590      56.51802826      52.71201324      49.72222137      48.73895645      46.72768021      43.98804092      40.60843658
          61.52459717      58.05555725      55.27777863      52.50000000      49.72222137      46.94444275      44.16666794      41.38888931      38.61111069
          60.83333588      58.68558502      56.51943970      54.00132751      51.38359070      48.35033417      45.10947418      42.13008881      39.33272171
          63.83744812      61.59729004      58.95140076      55.96939087      52.77632904      49.16249084      45.50939178      41.98006058      38.61111069
          66.16692352      63.47972870      60.23696899      56.02391815      51.60968018      47.34117126      44.16666794      41.38888931      39.72222137
          67.57183838      64.46694183      60.22767639      53.45950317      49.72222137      46.94444275      46.38888931      46.97963333      47.36957550
          68.15895081      64.89077759      60.24407959      52.50000000      51.38888931      51.67047882      52.00457001      52.39014435      52.97366333
          67.99723053      64.42732239      61.18440247      57.51129150      55.93979645      55.65058136      55.67131042      56.00404358      56.60647583
          67.06042480      64.42732239      61.69193268      58.75926971      57.57136536      57.34031677      57.38458252      57.83023071      58.54479218
          67.06042480      64.42732239      61.69193268      58.98468018      57.49037933      57.43244934      57.80052185      58.89093018      59.27478790
  idomain
    INTERNAL  FACTOR  1
      1  1  1  1  1  1  1  1  1
      1  1  1  1  1  1  1  1  1
      1  1  1  1  1  1  1  1  1
      1  1  1  1  1  1  1  1  1
      1  1  1  1  1  1  1  1  1
      1  1  1  1  1  1  1  1  1
      1  1  1  1  1  1  1  1  1
      1  1  1  1  1  1  1  1  1
      1  1  1  1  1  1  1  1  1
      0  0  0  1  1  1  1  1  1
      0  0  0  0  0  0  0  0  0
      1  1  1  1  1  1  1  1  1
      1  1  1  1  1  1  1  1  1
      1  1  1  1  1  1  1  1  1
      1  1  1  1  1  1  1  1  1
      1  1  1  1  1  1  1  1  1
      1  1  1  1  1  1  1  1  1
      1  1  1  1  1  1  1  1  1
      1  1  1  1  1  1  1  1  1
      1  1  1  1  1  1  1  1  1
      0  0  0  1  1  1  1  1  1
      0  0  0  0  0  0  0  0  0
END griddata

