# File generated by Flopy version 3.10.0.dev3 on 06/15/2025 at 07:20:24.
BEGIN options
END options

BEGIN dimensions
  MAXBOUND  88
END dimensions

BEGIN period  1
  1 4 8 7.88888855E+01 1.47679933E+04
  1 4 9 7.61111145E+01 3.34673180E+04
  1 5 6 8.44444427E+01 1.97898907E+04
  1 5 7 8.16666641E+01 3.64460776E+04
  1 5 8 7.96304092E+01 2.18392358E+04
  1 6 6 8.53349686E+01 8.32035942E+03
END period  1

