# File generated by Flopy version 3.10.0.dev3 on 06/15/2025 at 07:20:24.
BEGIN options
  auxiliary  depth
  AUXDEPTHNAME  depth
END options

BEGIN dimensions
  MAXBOUND  470
END dimensions

BEGIN period  1
  1 3 1 6.69975662E+01 1.00000000E+07 1.00000000E+00
  1 3 2 6.65064545E+01 1.00000000E+07 1.00000000E+00
  1 4 1 6.56071777E+01 1.00000000E+07 1.00000000E+00
  1 4 2 6.53985901E+01 1.00000000E+07 1.00000000E+00
  1 4 3 6.51419373E+01 1.00000000E+07 1.00000000E+00
  1 4 4 6.46311035E+01 1.00000000E+07 1.00000000E+00
  1 4 5 6.36839600E+01 1.00000000E+07 1.00000000E+00
  1 4 6 6.33368416E+01 1.00000000E+07 1.00000000E+00
  1 5 1 6.12579727E+01 1.00000000E+07 1.00000000E+00
  1 5 2 6.25206032E+01 1.00000000E+07 1.00000000E+00
  1 5 3 6.31775589E+01 1.00000000E+07 1.00000000E+00
  1 5 4 6.31263084E+01 1.00000000E+07 1.00000000E+00
  1 5 5 6.24895859E+01 1.00000000E+07 1.00000000E+00
  1 5 6 6.14514084E+01 1.00000000E+07 1.00000000E+00
  1 5 7 6.00248146E+01 1.00000000E+07 1.00000000E+00
  1 5 8 5.88073463E+01 1.00000000E+07 1.00000000E+00
  1 6 1 5.55338249E+01 1.00000000E+07 1.00000000E+00
  1 6 2 5.84561653E+01 1.00000000E+07 1.00000000E+00
  1 6 3 5.99243279E+01 1.00000000E+07 1.00000000E+00
  1 6 4 6.04843216E+01 1.00000000E+07 1.00000000E+00
  1 6 5 6.00908089E+01 1.00000000E+07 1.00000000E+00
  1 6 6 5.93240891E+01 1.00000000E+07 1.00000000E+00
  1 6 7 5.82388077E+01 1.00000000E+07 1.00000000E+00
  1 6 8 5.68083153E+01 1.00000000E+07 1.00000000E+00
  1 6 9 5.48764381E+01 1.00000000E+07 1.00000000E+00
  1 7 2 5.41257019E+01 1.00000000E+07 1.00000000E+00
  1 7 3 5.58925133E+01 1.00000000E+07 1.00000000E+00
  1 7 4 5.65956078E+01 1.00000000E+07 1.00000000E+00
  1 7 5 5.64369354E+01 1.00000000E+07 1.00000000E+00
  1 7 6 5.58894157E+01 1.00000000E+07 1.00000000E+00
  1 7 7 5.51285248E+01 1.00000000E+07 1.00000000E+00
  1 7 8 5.41241646E+01 1.00000000E+07 1.00000000E+00
  1 7 9 5.28142204E+01 1.00000000E+07 1.00000000E+00
  1 8 2 4.99994812E+01 1.00000000E+07 1.00000000E+00
  1 8 3 5.11001282E+01 1.00000000E+07 1.00000000E+00
  1 8 4 5.15924225E+01 1.00000000E+07 1.00000000E+00
  1 8 5 5.13463593E+01 1.00000000E+07 1.00000000E+00
  1 8 6 5.09401741E+01 1.00000000E+07 1.00000000E+00
  1 8 7 5.05496902E+01 1.00000000E+07 1.00000000E+00
  1 8 8 5.00808220E+01 1.00000000E+07 1.00000000E+00
  1 8 9 4.93262482E+01 1.00000000E+07 1.00000000E+00
  1 9 4 4.50907784E+01 1.00000000E+07 1.00000000E+00
  1 9 5 4.44795036E+01 1.00000000E+07 1.00000000E+00
  1 9 6 4.40515823E+01 1.00000000E+07 1.00000000E+00
  1 9 7 4.40232773E+01 1.00000000E+07 1.00000000E+00
  1 9 8 4.42630348E+01 1.00000000E+07 1.00000000E+00
  1 9 9 4.44759445E+01 1.00000000E+07 1.00000000E+00
  1 10 1 4.98747177E+01 1.00000000E+07 1.00000000E+00
  1 10 2 4.54689713E+01 1.00000000E+07 1.00000000E+00
  1 10 8 3.59725342E+01 1.00000000E+07 1.00000000E+00
  1 10 9 3.77709160E+01 1.00000000E+07 1.00000000E+00
END period  1

