# File generated by Flopy version 3.10.0.dev3 on 06/15/2025 at 07:20:24.
BEGIN options
  SAVE_FLOWS
  NEWTON  UNDER_RELAXATION
END options

BEGIN packages
  DIS6  model_5.dis  dis
  IC6  model_5.ic  ic
  NPF6  model_5.npf  npf
  STO6  model_5.sto  sto
  RCH6  model_5.rcha  rcha_0
  DRN6  model_5.drn  river
  DRN6  model_5_0.drn  gwd
  OC6  model_5.oc  oc
END packages

