# File generated by Flopy version 3.10.0.dev3 on 06/15/2025 at 07:20:24.
BEGIN options
  auxiliary  depth
  AUXDEPTHNAME  depth
END options

BEGIN dimensions
  MAXBOUND  470
END dimensions

BEGIN period  1
  1 1 1 7.59896011E+01 1.00000000E+07 1.00000000E+00
  1 1 2 7.21089401E+01 1.00000000E+07 1.00000000E+00
  1 1 3 6.79046097E+01 1.00000000E+07 1.00000000E+00
  1 1 6 6.37363968E+01 1.00000000E+07 1.00000000E+00
  1 1 7 6.15720901E+01 1.00000000E+07 1.00000000E+00
  1 1 8 5.85492783E+01 1.00000000E+07 1.00000000E+00
  1 1 9 5.49760666E+01 1.00000000E+07 1.00000000E+00
  1 2 1 7.58470993E+01 1.00000000E+07 1.00000000E+00
  1 2 2 7.21163559E+01 1.00000000E+07 1.00000000E+00
  1 2 3 6.85180283E+01 1.00000000E+07 1.00000000E+00
  1 2 4 6.47120132E+01 1.00000000E+07 1.00000000E+00
  1 2 6 6.07389565E+01 1.00000000E+07 1.00000000E+00
  1 2 7 5.87276802E+01 1.00000000E+07 1.00000000E+00
  1 2 8 5.59880409E+01 1.00000000E+07 1.00000000E+00
  1 2 9 5.26084366E+01 1.00000000E+07 1.00000000E+00
  1 3 1 7.35245972E+01 1.00000000E+07 1.00000000E+00
  1 4 3 6.85194397E+01 1.00000000E+07 1.00000000E+00
  1 4 4 6.60013275E+01 1.00000000E+07 1.00000000E+00
  1 4 5 6.33835907E+01 1.00000000E+07 1.00000000E+00
  1 4 6 6.03503342E+01 1.00000000E+07 1.00000000E+00
  1 4 7 5.71094742E+01 1.00000000E+07 1.00000000E+00
  1 4 8 5.41300888E+01 1.00000000E+07 1.00000000E+00
  1 4 9 5.13327217E+01 1.00000000E+07 1.00000000E+00
  1 5 1 7.58374481E+01 1.00000000E+07 1.00000000E+00
  1 5 2 7.35972900E+01 1.00000000E+07 1.00000000E+00
  1 5 3 7.09514008E+01 1.00000000E+07 1.00000000E+00
  1 5 4 6.79693909E+01 1.00000000E+07 1.00000000E+00
  1 5 5 6.47763290E+01 1.00000000E+07 1.00000000E+00
  1 5 6 6.11624908E+01 1.00000000E+07 1.00000000E+00
  1 5 7 5.75093918E+01 1.00000000E+07 1.00000000E+00
  1 5 8 5.39800606E+01 1.00000000E+07 1.00000000E+00
  1 6 1 7.81669235E+01 1.00000000E+07 1.00000000E+00
  1 6 2 7.54797287E+01 1.00000000E+07 1.00000000E+00
  1 6 3 7.22369690E+01 1.00000000E+07 1.00000000E+00
  1 6 4 6.80239182E+01 1.00000000E+07 1.00000000E+00
  1 6 5 6.36096802E+01 1.00000000E+07 1.00000000E+00
  1 6 6 5.93411713E+01 1.00000000E+07 1.00000000E+00
  1 7 1 7.95718384E+01 1.00000000E+07 1.00000000E+00
  1 7 2 7.64669418E+01 1.00000000E+07 1.00000000E+00
  1 7 3 7.22276764E+01 1.00000000E+07 1.00000000E+00
  1 7 4 6.54595032E+01 1.00000000E+07 1.00000000E+00
  1 7 8 5.89796333E+01 1.00000000E+07 1.00000000E+00
  1 7 9 5.93695755E+01 1.00000000E+07 1.00000000E+00
  1 8 1 8.01589508E+01 1.00000000E+07 1.00000000E+00
  1 8 2 7.68907776E+01 1.00000000E+07 1.00000000E+00
  1 8 3 7.22440796E+01 1.00000000E+07 1.00000000E+00
  1 8 6 6.36704788E+01 1.00000000E+07 1.00000000E+00
  1 8 7 6.40045700E+01 1.00000000E+07 1.00000000E+00
  1 8 8 6.43901443E+01 1.00000000E+07 1.00000000E+00
  1 8 9 6.49736633E+01 1.00000000E+07 1.00000000E+00
  1 9 1 7.99972305E+01 1.00000000E+07 1.00000000E+00
  1 9 2 7.64273224E+01 1.00000000E+07 1.00000000E+00
  1 9 3 7.31844025E+01 1.00000000E+07 1.00000000E+00
  1 9 4 6.95112915E+01 1.00000000E+07 1.00000000E+00
  1 9 5 6.79397964E+01 1.00000000E+07 1.00000000E+00
  1 9 6 6.76505814E+01 1.00000000E+07 1.00000000E+00
  1 9 7 6.76713104E+01 1.00000000E+07 1.00000000E+00
  1 9 8 6.80040436E+01 1.00000000E+07 1.00000000E+00
  1 9 9 6.86064758E+01 1.00000000E+07 1.00000000E+00
  1 10 4 7.07592697E+01 1.00000000E+07 1.00000000E+00
  1 10 5 6.95713654E+01 1.00000000E+07 1.00000000E+00
  1 10 6 6.93403168E+01 1.00000000E+07 1.00000000E+00
  1 10 7 6.93845825E+01 1.00000000E+07 1.00000000E+00
  1 10 8 6.98302307E+01 1.00000000E+07 1.00000000E+00
  1 10 9 7.05447922E+01 1.00000000E+07 1.00000000E+00
END period  1

