# File generated by Flopy version 3.10.0.dev3 on 06/16/2025 at 06:44:22.
BEGIN options
  auxiliary  ANGLDEGX  CDIST
  NEWTON
END options

BEGIN dimensions
  NEXG  16
END dimensions

BEGIN exchangedata
  1 3 9  1 3 1  1    2500.00000000    2500.00000000    5000.00000000       0.00000000    5000.00000000
  2 3 9  2 3 1  1    2500.00000000    2500.00000000    5000.00000000       0.00000000    5000.00000000
  1 4 9  1 4 1  1    2500.00000000    2500.00000000    5000.00000000       0.00000000    5000.00000000
  2 4 9  2 4 1  1    2500.00000000    2500.00000000    5000.00000000       0.00000000    5000.00000000
  1 5 9  1 5 1  1    2500.00000000    2500.00000000    5000.00000000       0.00000000    5000.00000000
  2 5 9  2 5 1  1    2500.00000000    2500.00000000    5000.00000000       0.00000000    5000.00000000
  1 6 9  1 6 1  1    2500.00000000    2500.00000000    5000.00000000       0.00000000    5000.00000000
  2 6 9  2 6 1  1    2500.00000000    2500.00000000    5000.00000000       0.00000000    5000.00000000
  1 7 9  1 7 1  1    2500.00000000    2500.00000000    5000.00000000       0.00000000    5000.00000000
  2 7 9  2 7 1  1    2500.00000000    2500.00000000    5000.00000000       0.00000000    5000.00000000
  1 8 9  1 8 1  1    2500.00000000    2500.00000000    5000.00000000       0.00000000    5000.00000000
  2 8 9  2 8 1  1    2500.00000000    2500.00000000    5000.00000000       0.00000000    5000.00000000
  1 9 9  1 9 1  1    2500.00000000    2500.00000000    5000.00000000       0.00000000    5000.00000000
  2 9 9  2 9 1  1    2500.00000000    2500.00000000    5000.00000000       0.00000000    5000.00000000
  1 10 9  1 10 1  1    2500.00000000    2500.00000000    5000.00000000       0.00000000    5000.00000000
  2 10 9  2 10 1  1    2500.00000000    2500.00000000    5000.00000000       0.00000000    5000.00000000
END exchangedata

