# File generated by Flopy version 3.8.2 on 01/20/2025 at 14:52:32.
BEGIN options
END options

BEGIN dimensions
  NLAY  3
  NROW  100
  NCOL  100
END dimensions

BEGIN griddata
  delr
    CONSTANT     100.00000000
  delc
    CONSTANT     100.00000000
  top
    CONSTANT      50.00000000
  botm  LAYERED
    CONSTANT      40.00000000
    CONSTANT      35.00000000
    CONSTANT       0.00000000
END griddata

