# File generated by Flopy version 3.8.2 on 01/20/2025 at 14:52:32.
BEGIN options
  DIGITS  3
END options

BEGIN continuous  FILEOUT  riv_obs.csv
  river  RIV  river_bc
  riv_7_9  RIV  1 8 10
END continuous  FILEOUT  riv_obs.csv

BEGIN continuous  FILEOUT  riv_obs2.csv
  riv_7_0  RIV  1 8 1
END continuous  FILEOUT  riv_obs2.csv

