# File generated by Flopy version 3.9.1 on 05/20/2025 at 09:48:50.
BEGIN options
END options

BEGIN griddata
  strt
    CONSTANT     115.00000000
END griddata

