# File generated by Flopy version 3.9.1 on 05/20/2025 at 09:48:50.
BEGIN options
  READASARRAYS
END options

BEGIN period  1
  recharge
    CONSTANT       0.01160000
END period  1

