# File generated by Flopy version 3.8.2 on 01/14/2025 at 06:59:29.
BEGIN options
  SAVE_FLOWS
END options

BEGIN packages
  DIS6  B_model.dis  dis
END packages

