# File generated by Flopy version 3.8.2 on 01/14/2025 at 06:59:29.
BEGIN options
END options

BEGIN timing
  TDIS6  B_model.tdis
END timing

BEGIN models
  gwf6  B_model.nam  B_model
END models

BEGIN exchanges
END exchanges

