# File generated by Flopy version 3.9.1 on 04/17/2025 at 14:20:53.
BEGIN OPTIONS
  TIME_UNITS  days
END OPTIONS

BEGIN DIMENSIONS
  NPER  5
END DIMENSIONS

BEGIN PERIODDATA
      20.00000000  10       1.00000000
      20.00000000  10       1.00000000
      20.00000000  10       1.00000000
     500.00000000  10       1.00000000
    2000.00000000  50       1.00000000
END PERIODDATA

