# File generated by Flopy version 3.9.1 on 04/17/2025 at 14:20:53.
BEGIN Options
  SAVE_FLOWS
END Options

BEGIN GRIDDATA
  icelltype  LAYERED
    CONSTANT  1
    CONSTANT  1
    CONSTANT  1
  k  LAYERED
    CONSTANT      10.00000000
    CONSTANT      10.00000000
    CONSTANT      10.00000000
  k33  LAYERED
    CONSTANT      10.00000000
    CONSTANT      10.00000000
    CONSTANT      10.00000000
END GRIDDATA

