# File generated by Flopy version 3.9.1 on 04/17/2025 at 14:20:53.
BEGIN Options
  PRINT_FLOWS
END Options

BEGIN Dimensions
  MAXBOUND  2
END Dimensions

BEGIN Period  1
  3 1 1 -2.50000000E+01
  3 1 10 -2.50000000E+01
END Period  1

