# File generated by Flopy version 3.9.1 on 03/10/2025 at 07:12:04.
BEGIN options
  auxiliary  CONCENTRATION
END options

BEGIN dimensions
  MAXBOUND  22
END dimensions

BEGIN period  1
  6 1 50 5.37500000E+00 0
  7 1 50 5.37500000E+00 0
  8 1 50 5.37500000E+00 0
  9 1 50 5.37500000E+00 0
  10 1 50 5.37500000E+00 0
  11 1 50 5.37500000E+00 0
  12 1 50 5.37500000E+00 0
  13 1 50 5.37500000E+00 0
  14 1 50 5.37500000E+00 0
  15 1 50 5.37500000E+00 0
  16 1 50 5.37500000E+00 0
  17 1 50 5.37500000E+00 0
  18 1 50 5.37500000E+00 0
  19 1 50 5.37500000E+00 0
  20 1 50 5.37500000E+00 0
  21 1 50 5.37500000E+00 0
  22 1 50 5.37500000E+00 0
  23 1 50 5.37500000E+00 0
  24 1 50 5.37500000E+00 0
  25 1 50 5.37500000E+00 0
  26 1 50 5.37500000E+00 0
  27 1 50 5.37500000E+00 0
END period  1

