# File generated by Flopy version 3.9.1 on 03/10/2025 at 07:12:04.
BEGIN options
  READASARRAYS
  PRINT_FLOWS
END options

BEGIN period  1
  recharge
    CONSTANT  2.73972603E-04
END period  1

