# File generated by Flopy version 3.9.1 on 06/21/2025 at 07:15:17.
BEGIN options
  SAVE_SPECIFIC_DISCHARGE
END options

BEGIN griddata
  icelltype
    CONSTANT  0
  k
    CONSTANT  1.00000000E+06
END griddata

