# File generated by Flopy version 3.9.1 on 06/18/2025 at 11:41:06.
BEGIN options
END options

BEGIN griddata
  strt
    CONSTANT       0.00000000
END griddata

