# WEL package for MODFLOW-2005 generated by Flopy 3.9.1
        20         0 
        20         0 # stress period 1
         1         1         1   3.0857143e-05
         2         1         1   3.0857143e-05
         3         1         1   3.0857143e-05
         4         1         1   3.0857143e-05
         5         1         1   3.0857143e-05
         6         1         1   3.0857143e-05
         7         1         1   3.0857143e-05
         8         1         1   3.0857143e-05
         9         1         1   3.0857143e-05
        10         1         1   3.0857143e-05
        11         1         1   3.0857143e-05
        12         1         1   3.0857143e-05
        13         1         1   3.0857143e-05
        14         1         1   3.0857143e-05
        15         1         1   3.0857143e-05
        16         1         1   3.0857143e-05
        17         1         1   3.0857143e-05
        18         1         1   3.0857143e-05
        19         1         1   3.0857143e-05
        20         1         1   3.0857143e-05
        -1         0 # stress period 2
        -1         0 # stress period 3
