# File generated by Flopy version 3.9.1 on 02/26/2025 at 15:06:54.
BEGIN options
  auxiliary  CONCENTRATION
  PRINT_INPUT
  PRINT_FLOWS
END options

BEGIN dimensions
  MAXBOUND  1
END dimensions

BEGIN period  1
  7 8 3 5.00000000E-01 1.00000000E+02
END period  1

