# File generated by Flopy version 3.9.1 on 02/26/2025 at 09:40:35.
BEGIN options
END options

BEGIN continuous  FILEOUT  gwt-p07-mf6.obs.csv
  bckgrnd_cn  concentration  1 16 16
END continuous  FILEOUT  gwt-p07-mf6.obs.csv

