# File generated by Flopy version 3.9.1 on 02/26/2025 at 15:06:54.
BEGIN options
  SCHEME  tvd
END options

