# File generated by Flopy version 3.9.1 on 05/21/2025 at 07:00:55.
BEGIN options
  HEAD  FILEOUT  08_p02.hds
END options

BEGIN period  1
  SAVE  HEAD  LAST
END period  1

