# File generated by Flopy version 3.9.1 on 04/09/2025 at 10:47:42.
BEGIN options
  HEAD  FILEOUT  08_p02.hds
END options

BEGIN period  1
  SAVE  HEAD  ALL
END period  1

