# File generated by Flopy version 3.9.1 on 04/09/2025 at 10:47:42.
BEGIN options
END options

BEGIN griddata
  strt
    CONSTANT      25.00000000
END griddata

