# File generated by Flopy version 3.10.0.dev3 on 06/16/2025 at 06:44:25.
BEGIN options
END options

BEGIN griddata
  strt  LAYERED
    INTERNAL  FACTOR  1.0
           0.00000000       0.00000000       0.00000000      69.09484863      65.55821991      60.71808243
          67.77777863      66.66666412      68.26345062      66.82621765      64.14474487      60.52262115
          68.40460968      65.00000000      64.44444275      64.23639679      62.07209015      59.04927826
          69.01802826      65.21201324      62.22222137      61.23895645      59.22768021      56.48804092
          67.77777863      65.00000000      62.22222137      59.44444275      56.66666794      53.88888931
          69.01943970      66.50132751      63.88359070      60.85033417      57.60947418      54.63008881
          71.45140076      68.46939087      65.27632904      61.66249084      58.00939178      54.48006058
          72.73696899      68.52391815      64.10968018      59.84117126      56.66666794      53.88888931
          72.72767639      65.95950317      62.22222137      59.44444275      58.88888931      59.47963333
          72.74407959      65.00000000      63.88888931      64.17047882      64.50457001      64.89014435
          73.68440247      70.01129150      68.43979645      68.15058136      68.17131042      68.50404358
          74.19193268      71.25926971      70.07136536      69.84031677      69.88458252      70.33023071
          74.19193268      71.48468018      69.99037933      69.93244934      70.30052185      71.39093018
    INTERNAL  FACTOR  1.0
           0.00000000       0.00000000       0.00000000      69.09484863      65.55821991      60.71808243
          67.77777863      66.66666412      68.26345062      66.82621765      64.14474487      60.52262115
          68.40460968      65.00000000      64.44444275      64.23639679      62.07209015      59.04927826
          69.01802826      65.21201324      62.22222137      61.23895645      59.22768021      56.48804092
          67.77777863      65.00000000      62.22222137      59.44444275      56.66666794      53.88888931
          69.01943970      66.50132751      63.88359070      60.85033417      57.60947418      54.63008881
          71.45140076      68.46939087      65.27632904      61.66249084      58.00939178      54.48006058
          72.73696899      68.52391815      64.10968018      59.84117126      56.66666794      53.88888931
          72.72767639      65.95950317      62.22222137      59.44444275      58.88888931      59.47963333
          72.74407959      65.00000000      63.88888931      64.17047882      64.50457001      64.89014435
          73.68440247      70.01129150      68.43979645      68.15058136      68.17131042      68.50404358
          74.19193268      71.25926971      70.07136536      69.84031677      69.88458252      70.33023071
          74.19193268      71.48468018      69.99037933      69.93244934      70.30052185      71.39093018
END griddata

