# File generated by Flopy version 3.9.1 on 04/04/2025 at 16:12:59.
BEGIN options
  SCHEME  tvd
END options

