# File generated by Flopy version 3.9.1 on 04/04/2025 at 16:12:59.
BEGIN options
END options

BEGIN timing
  TDIS6  p06_beta_mf6.tdis
END timing

BEGIN models
  gwf6  gwf-p06-mf6L.nam  gwf-p06-mf6L
  gwt6  gwt_p06-mf6L.nam  gwt_p06-mf6L
END models

BEGIN exchanges
  GWF6-GWT6  p06-mf6L.gwfgwt  gwf-p06-mf6L  gwt_p06-mf6L
END exchanges

BEGIN solutiongroup  1
  ims6  gwf-p06-mf6L.ims  gwf-p06-mf6L
  ims6  gwt_p06-mf6L.ims  gwt_p06-mf6L
END solutiongroup  1

