# File generated by Flopy version 3.9.1 on 06/21/2025 at 10:35:07.
BEGIN options
  SAVE_FLOWS
END options

BEGIN packages
  DIS6  inner.dis  dis
  IC6  inner.ic  ic
  NPF6  inner.npf  npf
  OC6  inner.oc  oc
END packages

