# File generated by Flopy version 3.9.1 on 06/21/2025 at 10:35:07.
BEGIN options
END options

BEGIN timing
  TDIS6  ex-gwf-u1gwfgwf-s3.tdis
END timing

BEGIN models
  gwf6  outer.nam  outer
  gwf6  inner.nam  inner
END models

BEGIN exchanges
  GWF6-GWF6  ex-gwf-u1gwfgwf-s3.gwfgwf  outer  inner
END exchanges

BEGIN solutiongroup  1
  ims6  ex-gwf-u1gwfgwf-s3.ims  outer  inner
END solutiongroup  1

