# Name file for MODFLOW-2005, generated by Flopy version 3.9.1.
#xll:0.0; yll:0.0; rotation:0.0; units:meters; lenuni:2; start_datetime:1-1-1970
LIST               2  multiscale1_mf.list
DIS               11  multiscale1_mf.dis
BAS6              13  multiscale1_mf.bas
LPF               15  multiscale1_mf.lpf
PCG               27  multiscale1_mf.pcg
LMT6              30  multiscale1_mf.lmt6
OC                14  multiscale1_mf.oc
DATA(BINARY)      51  multiscale1_mf.hds REPLACE
