# File generated by Flopy version 3.8.2 on 06/20/2025 at 14:07:55.
BEGIN options
END options

BEGIN griddata
  strt  LAYERED
    CONSTANT       3.05000000
    CONSTANT       9.14000000
END griddata

