# File generated by Flopy version 3.8.2 on 06/20/2025 at 14:07:55.
BEGIN options
  TIME_UNITS  days
END options

BEGIN dimensions
  NPER  1
END dimensions

BEGIN perioddata
       2.31481500  50       1.20000000
END perioddata

