# File generated by Flopy version 3.8.2 on 06/20/2025 at 14:07:55.
BEGIN options
  SAVE_FLOWS
END options

BEGIN packages
  DIS6  ex-gwf-maw-p01.dis  dis
  NPF6  ex-gwf-maw-p01.npf  npf
  STO6  ex-gwf-maw-p01.sto  sto
  IC6  ex-gwf-maw-p01.ic  ic
  MAW6  ex-gwf-maw-p01.maw  maw_0
  OC6  ex-gwf-maw-p01.oc  oc
END packages

