# File generated by Flopy version 3.8.2 on 06/20/2025 at 14:07:55.
BEGIN options
END options

BEGIN timing
  TDIS6  ex-gwf-maw-p01.tdis
END timing

BEGIN models
  gwf6  ex-gwf-maw-p01.nam  ex-gwf-maw-p01
END models

BEGIN exchanges
END exchanges

BEGIN solutiongroup  1
  ims6  ex-gwf-maw-p01.ims  ex-gwf-maw-p01
END solutiongroup  1

