# File generated by Flopy version 3.9.1 on 03/19/2025 at 17:28:08.
BEGIN options
  SAVE_FLOWS
END options

BEGIN packages
  DIS6  gwf-p06-mf6L.dis  dis
  NPF6  gwf-p06-mf6L.npf  npf
  STO6  gwf-p06-mf6L.sto  sto
  IC6  gwf-p06-mf6L.ic  ic
  CHD6  gwf-p06-mf6L.chd  chd-1
  WEL6  gwf-p06-mf6L.wel  wel-1
  OC6  gwf-p06-mf6L.oc  oc
END packages

