# File generated by Flopy version 3.9.1 on 04/04/2025 at 15:19:09.
BEGIN options
  BUDGET  FILEOUT  gwt_p06-mf6L.cbc
  CONCENTRATION  FILEOUT  gwt_p06-mf6L.ucn
  CONCENTRATION  PRINT_FORMAT  COLUMNS  10  WIDTH  15  DIGITS  6  GENERAL
END options

BEGIN period  1
  SAVE  CONCENTRATION  LAST
  SAVE  BUDGET  LAST
  PRINT  CONCENTRATION  LAST
  PRINT  BUDGET  LAST
END period  1

