# File generated by Flopy version 3.9.1 on 03/19/2025 at 17:28:08.
BEGIN options
  SAVE_FLOWS
END options

BEGIN packages
  DIS6  gwt_p06-mf6L.dis  dis
  IC6  gwt_p06-mf6L.ic  ic
  ADV6  gwt_p06-mf6L.adv  adv
  DSP6  gwt_p06-mf6L.dsp  dsp
  MST6  gwt_p06-mf6L.mst  mst
  SSM6  gwt_p06-mf6L.ssm  ssm
  OC6  gwt_p06-mf6L.oc  oc
  OBS6  gwt_p06-mf6L.obs  obs_0
END packages

