# File generated by Flopy version 3.9.1 on 03/19/2025 at 17:28:08.
BEGIN options
  SCHEME  tvd
END options

