# File generated by Flopy version 3.9.1 on 03/19/2025 at 17:28:08.
BEGIN options
  TIME_UNITS  days
END options

BEGIN dimensions
  NPER  2
END dimensions

BEGIN perioddata
     912.50000000  36       1.00000000
    2737.50000000  109       1.00000000
END perioddata

