# File generated by Flopy version 3.9.1 on 02/23/2025 at 09:43:00.
BEGIN options
  TIME_UNITS  days
END options

BEGIN dimensions
  NPER  2
END dimensions

BEGIN perioddata
       1.00000000  365       1.00000000
     365.00000000  365       1.00000000
END perioddata

