# File generated by Flopy version 3.9.1 on 02/21/2025 at 15:15:07.
BEGIN options
  BUDGET  FILEOUT  gwf-p03-mf6.bud
  HEAD  FILEOUT  gwf-p03-mf6.hds
  HEAD  PRINT_FORMAT  COLUMNS  31  WIDTH  15  DIGITS  2  GENERAL
END options

BEGIN period  1
  SAVE  HEAD  LAST
  SAVE  BUDGET  LAST
  PRINT  HEAD  LAST
  PRINT  BUDGET  LAST
END period  1

