# File generated by Flopy version 3.9.1 on 02/21/2025 at 15:15:07.
BEGIN options
END options

BEGIN dimensions
  NLAY  1
  NROW  31
  NCOL  46
END dimensions

BEGIN griddata
  delr
    CONSTANT      10.00000000
  delc
    CONSTANT      10.00000000
  top
    CONSTANT       0.00000000
  botm
    CONSTANT     -10.00000000
  idomain
    CONSTANT  1
END griddata

