# File generated by Flopy version 3.9.1 on 02/23/2025 at 09:43:00.
BEGIN options
  SCHEME  upstream
END options

