# File generated by Flopy version 3.9.1 on 02/21/2025 at 15:15:07.
BEGIN options
  BUDGET  FILEOUT  gwt_p03-mf6.cbc
  CONCENTRATION  FILEOUT  gwt_p03-mf6.UCN
  CONCENTRATION  PRINT_FORMAT  COLUMNS  10  WIDTH  15  DIGITS  6  GENERAL
END options

BEGIN period  1
  SAVE  CONCENTRATION  ALL
  PRINT  CONCENTRATION  ALL
END period  1

