# File generated by Flopy version 3.9.1 on 02/21/2025 at 15:15:07.
BEGIN options
END options

BEGIN dimensions
  MAXBOUND  1
END dimensions

BEGIN period  1
  1 1 1       0.00000000
END period  1

