# File generated by Flopy version 3.9.1 on 02/21/2025 at 15:15:07.
BEGIN options
END options

BEGIN griddata
  strt
    CONSTANT       0.00000000
END griddata

