# File generated by Flopy version 3.9.1 on 02/23/2025 at 09:43:00.
BEGIN options
END options

BEGIN dimensions
  MAXBOUND  1
END dimensions

BEGIN period  1
  1 1 1       0.00000000
END period  1

