# File generated by Flopy version 3.9.1 on 05/08/2025 at 14:16:49.
BEGIN options
  HEAD  FILEOUT  ex-gwf-maw-p03.hds
END options

BEGIN period  1
  SAVE  HEAD  LAST
  PRINT  BUDGET  LAST
END period  1

