# File generated by Flopy version 3.9.1 on 05/08/2025 at 14:16:49.
BEGIN options
END options

BEGIN dimensions
  MAXBOUND  1
END dimensions

BEGIN period  1
  1 1 200 0.00000000E+00
END period  1

