# File generated by Flopy version 3.9.1 on 05/27/2025 at 15:59:12.
BEGIN options
END options

BEGIN timing
  TDIS6  ex-gwf-lgrv-gc.tdis
END timing

BEGIN models
  gwf6  parent.nam  parent
END models

BEGIN exchanges
END exchanges

BEGIN solutiongroup  1
  ims6  ex-gwf-lgrv-gc.ims  parent
END solutiongroup  1

