# File generated by Flopy version 3.9.1 on 06/24/2025 at 07:30:57.
BEGIN options
  BUDGET  FILEOUT  ex-gwf-maw-p03.cbc
  HEAD  FILEOUT  ex-gwf-maw-p03.hds
END options

BEGIN period  1
  SAVE  HEAD  LAST
  SAVE  BUDGET  LAST
  PRINT  BUDGET  LAST
END period  1

