# File generated by Flopy version 3.9.1 on 05/09/2025 at 11:48:42.
BEGIN options
  READASARRAYS
END options

BEGIN period  1
  recharge
    CONSTANT       0.00456600
END period  1

