# File generated by Flopy version 3.9.1 on 06/24/2025 at 07:30:57.
BEGIN options
  READASARRAYS
END options

BEGIN period  1
  recharge
    CONSTANT       0.00456600
END period  1

