# File generated by Flopy version 3.9.1 on 05/20/2025 at 10:30:11.
BEGIN options
END options

BEGIN griddata
  strt
    CONSTANT      10.00000000
END griddata

