# File generated by Flopy version 3.9.1 on 06/24/2025 at 07:30:57.
BEGIN options
END options

BEGIN griddata
  strt
    CONSTANT      10.00000000
END griddata

