# File generated by Flopy version 3.9.1 on 05/20/2025 at 10:30:11.
BEGIN options
END options

BEGIN dimensions
  MAXBOUND  1312
END dimensions

BEGIN period  1
  1 1 1 4.93564173E+00
  1 1 27 4.92194107E+00
  1 2 1 4.93564173E+00
  1 2 27 4.92194107E+00
  1 3 1 4.93564173E+00
  1 3 27 4.92194107E+00
  1 4 1 4.93564173E+00
  1 4 27 4.92194107E+00
  1 5 1 4.93564173E+00
  1 5 27 4.92194107E+00
  1 6 1 4.93564173E+00
  1 6 27 4.92194107E+00
  1 7 1 4.93564173E+00
  1 7 27 4.92194107E+00
  1 8 1 4.93564173E+00
  1 8 27 4.92194107E+00
  1 9 1 4.93564173E+00
  1 9 27 4.92194107E+00
  1 10 1 4.93564173E+00
  1 10 27 4.92194107E+00
  1 11 1 4.93564173E+00
  1 11 27 4.92194107E+00
  1 12 1 4.93564173E+00
  1 12 27 4.92194107E+00
  1 13 1 4.93564173E+00
  1 13 27 4.92194107E+00
  1 14 1 4.93564173E+00
  1 14 27 4.92194107E+00
  1 15 1 4.93564173E+00
  1 15 27 4.92194107E+00
  1 16 1 4.93564173E+00
  1 16 27 4.92194107E+00
  2 1 1 4.93455418E+00
  2 1 27 4.92085331E+00
  2 2 1 4.93455418E+00
  2 2 27 4.92085331E+00
  2 3 1 4.93455418E+00
  2 3 27 4.92085331E+00
  2 4 1 4.93455418E+00
  2 4 27 4.92085331E+00
  2 5 1 4.93455418E+00
  2 5 27 4.92085331E+00
  2 6 1 4.93455418E+00
  2 6 27 4.92085331E+00
  2 7 1 4.93455418E+00
  2 7 27 4.92085331E+00
  2 8 1 4.93455418E+00
  2 8 27 4.92085331E+00
  2 9 1 4.93455418E+00
  2 9 27 4.92085331E+00
  2 10 1 4.93455418E+00
  2 10 27 4.92085331E+00
  2 11 1 4.93455418E+00
  2 11 27 4.92085331E+00
  2 12 1 4.93455418E+00
  2 12 27 4.92085331E+00
  2 13 1 4.93455418E+00
  2 13 27 4.92085331E+00
  2 14 1 4.93455418E+00
  2 14 27 4.92085331E+00
  2 15 1 4.93455418E+00
  2 15 27 4.92085331E+00
  2 16 1 4.93455418E+00
  2 16 27 4.92085331E+00
  3 1 1 4.93455418E+00
  3 1 27 4.92085331E+00
  3 2 1 4.93455418E+00
  3 2 27 4.92085331E+00
  3 3 1 4.93455418E+00
  3 3 27 4.92085331E+00
  3 4 1 4.93455418E+00
  3 4 27 4.92085331E+00
  3 5 1 4.93455418E+00
  3 5 27 4.92085331E+00
  3 6 1 4.93455418E+00
  3 6 27 4.92085331E+00
  3 7 1 4.93455418E+00
  3 7 27 4.92085331E+00
  3 8 1 4.93455418E+00
  3 8 27 4.92085331E+00
  3 9 1 4.93455418E+00
  3 9 27 4.92085331E+00
  3 10 1 4.93455418E+00
  3 10 27 4.92085331E+00
  3 11 1 4.93455418E+00
  3 11 27 4.92085331E+00
  3 12 1 4.93455418E+00
  3 12 27 4.92085331E+00
  3 13 1 4.93455418E+00
  3 13 27 4.92085331E+00
  3 14 1 4.93455418E+00
  3 14 27 4.92085331E+00
  3 15 1 4.93455418E+00
  3 15 27 4.92085331E+00
  3 16 1 4.93455418E+00
  3 16 27 4.92085331E+00
  4 1 1 4.93372764E+00
  4 1 27 4.92002661E+00
  4 2 1 4.93372764E+00
  4 2 27 4.92002661E+00
  4 3 1 4.93372764E+00
  4 3 27 4.92002661E+00
  4 4 1 4.93372764E+00
  4 4 27 4.92002661E+00
  4 5 1 4.93372764E+00
  4 5 27 4.92002661E+00
  4 6 1 4.93372764E+00
  4 6 27 4.92002661E+00
  4 7 1 4.93372764E+00
  4 7 27 4.92002661E+00
  4 8 1 4.93372764E+00
  4 8 27 4.92002661E+00
  4 9 1 4.93372764E+00
  4 9 27 4.92002661E+00
  4 10 1 4.93372764E+00
  4 10 27 4.92002661E+00
  4 11 1 4.93372764E+00
  4 11 27 4.92002661E+00
  4 12 1 4.93372764E+00
  4 12 27 4.92002661E+00
  4 13 1 4.93372764E+00
  4 13 27 4.92002661E+00
  4 14 1 4.93372764E+00
  4 14 27 4.92002661E+00
  4 15 1 4.93372764E+00
  4 15 27 4.92002661E+00
  4 16 1 4.93372764E+00
  4 16 27 4.92002661E+00
  5 1 1 4.93372764E+00
  5 1 27 4.92002661E+00
  5 2 1 4.93372764E+00
  5 2 27 4.92002661E+00
  5 3 1 4.93372764E+00
  5 3 27 4.92002661E+00
  5 4 1 4.93372764E+00
  5 4 27 4.92002661E+00
  5 5 1 4.93372764E+00
  5 5 27 4.92002661E+00
  5 6 1 4.93372764E+00
  5 6 27 4.92002661E+00
  5 7 1 4.93372764E+00
  5 7 27 4.92002661E+00
  5 8 1 4.93372764E+00
  5 8 27 4.92002661E+00
  5 9 1 4.93372764E+00
  5 9 27 4.92002661E+00
  5 10 1 4.93372764E+00
  5 10 27 4.92002661E+00
  5 11 1 4.93372764E+00
  5 11 27 4.92002661E+00
  5 12 1 4.93372764E+00
  5 12 27 4.92002661E+00
  5 13 1 4.93372764E+00
  5 13 27 4.92002661E+00
  5 14 1 4.93372764E+00
  5 14 27 4.92002661E+00
  5 15 1 4.93372764E+00
  5 15 27 4.92002661E+00
  5 16 1 4.93372764E+00
  5 16 27 4.92002661E+00
  6 1 1 4.93294460E+00
  6 1 27 4.91924341E+00
  6 2 1 4.93294460E+00
  6 2 27 4.91924341E+00
  6 3 1 4.93294460E+00
  6 3 27 4.91924341E+00
  6 4 1 4.93294460E+00
  6 4 27 4.91924341E+00
  6 5 1 4.93294460E+00
  6 5 27 4.91924341E+00
  6 6 1 4.93294460E+00
  6 6 27 4.91924341E+00
  6 7 1 4.93294460E+00
  6 7 27 4.91924341E+00
  6 8 1 4.93294460E+00
  6 8 27 4.91924341E+00
  6 9 1 4.93294460E+00
  6 9 27 4.91924341E+00
  6 10 1 4.93294460E+00
  6 10 27 4.91924341E+00
  6 11 1 4.93294460E+00
  6 11 27 4.91924341E+00
  6 12 1 4.93294460E+00
  6 12 27 4.91924341E+00
  6 13 1 4.93294460E+00
  6 13 27 4.91924341E+00
  6 14 1 4.93294460E+00
  6 14 27 4.91924341E+00
  6 15 1 4.93294460E+00
  6 15 27 4.91924341E+00
  6 16 1 4.93294460E+00
  6 16 27 4.91924341E+00
  7 1 1 4.93294460E+00
  7 1 27 4.91924341E+00
  7 2 1 4.93294460E+00
  7 2 27 4.91924341E+00
  7 3 1 4.93294460E+00
  7 3 27 4.91924341E+00
  7 4 1 4.93294460E+00
  7 4 27 4.91924341E+00
  7 5 1 4.93294460E+00
  7 5 27 4.91924341E+00
  7 6 1 4.93294460E+00
  7 6 27 4.91924341E+00
  7 7 1 4.93294460E+00
  7 7 27 4.91924341E+00
  7 8 1 4.93294460E+00
  7 8 27 4.91924341E+00
  7 9 1 4.93294460E+00
  7 9 27 4.91924341E+00
  7 10 1 4.93294460E+00
  7 10 27 4.91924341E+00
  7 11 1 4.93294460E+00
  7 11 27 4.91924341E+00
  7 12 1 4.93294460E+00
  7 12 27 4.91924341E+00
  7 13 1 4.93294460E+00
  7 13 27 4.91924341E+00
  7 14 1 4.93294460E+00
  7 14 27 4.91924341E+00
  7 15 1 4.93294460E+00
  7 15 27 4.91924341E+00
  7 16 1 4.93294460E+00
  7 16 27 4.91924341E+00
  8 1 1 4.93220505E+00
  8 1 27 4.91850373E+00
  8 2 1 4.93220505E+00
  8 2 27 4.91850373E+00
  8 3 1 4.93220505E+00
  8 3 27 4.91850373E+00
  8 4 1 4.93220505E+00
  8 4 27 4.91850373E+00
  8 5 1 4.93220505E+00
  8 5 27 4.91850373E+00
  8 6 1 4.93220505E+00
  8 6 27 4.91850373E+00
  8 7 1 4.93220505E+00
  8 7 27 4.91850373E+00
  8 8 1 4.93220505E+00
  8 8 27 4.91850373E+00
  8 9 1 4.93220505E+00
  8 9 27 4.91850373E+00
  8 10 1 4.93220505E+00
  8 10 27 4.91850373E+00
  8 11 1 4.93220505E+00
  8 11 27 4.91850373E+00
  8 12 1 4.93220505E+00
  8 12 27 4.91850373E+00
  8 13 1 4.93220505E+00
  8 13 27 4.91850373E+00
  8 14 1 4.93220505E+00
  8 14 27 4.91850373E+00
  8 15 1 4.93220505E+00
  8 15 27 4.91850373E+00
  8 16 1 4.93220505E+00
  8 16 27 4.91850373E+00
  9 1 1 4.93220505E+00
  9 1 27 4.91850373E+00
  9 2 1 4.93220505E+00
  9 2 27 4.91850373E+00
  9 3 1 4.93220505E+00
  9 3 27 4.91850373E+00
  9 4 1 4.93220505E+00
  9 4 27 4.91850373E+00
  9 5 1 4.93220505E+00
  9 5 27 4.91850373E+00
  9 6 1 4.93220505E+00
  9 6 27 4.91850373E+00
  9 7 1 4.93220505E+00
  9 7 27 4.91850373E+00
  9 8 1 4.93220505E+00
  9 8 27 4.91850373E+00
  9 9 1 4.93220505E+00
  9 9 27 4.91850373E+00
  9 10 1 4.93220505E+00
  9 10 27 4.91850373E+00
  9 11 1 4.93220505E+00
  9 11 27 4.91850373E+00
  9 12 1 4.93220505E+00
  9 12 27 4.91850373E+00
  9 13 1 4.93220505E+00
  9 13 27 4.91850373E+00
  9 14 1 4.93220505E+00
  9 14 27 4.91850373E+00
  9 15 1 4.93220505E+00
  9 15 27 4.91850373E+00
  9 16 1 4.93220505E+00
  9 16 27 4.91850373E+00
  10 1 1 4.93150901E+00
  10 1 27 4.91780755E+00
  10 2 1 4.93150901E+00
  10 2 27 4.91780755E+00
  10 3 1 4.93150901E+00
  10 3 27 4.91780755E+00
  10 4 1 4.93150901E+00
  10 4 27 4.91780755E+00
  10 5 1 4.93150901E+00
  10 5 27 4.91780755E+00
  10 6 1 4.93150901E+00
  10 6 27 4.91780755E+00
  10 7 1 4.93150901E+00
  10 7 27 4.91780755E+00
  10 8 1 4.93150901E+00
  10 8 27 4.91780755E+00
  10 9 1 4.93150901E+00
  10 9 27 4.91780755E+00
  10 10 1 4.93150901E+00
  10 10 27 4.91780755E+00
  10 11 1 4.93150901E+00
  10 11 27 4.91780755E+00
  10 12 1 4.93150901E+00
  10 12 27 4.91780755E+00
  10 13 1 4.93150901E+00
  10 13 27 4.91780755E+00
  10 14 1 4.93150901E+00
  10 14 27 4.91780755E+00
  10 15 1 4.93150901E+00
  10 15 27 4.91780755E+00
  10 16 1 4.93150901E+00
  10 16 27 4.91780755E+00
  11 1 1 4.93150901E+00
  11 1 27 4.91780755E+00
  11 2 1 4.93150901E+00
  11 2 27 4.91780755E+00
  11 3 1 4.93150901E+00
  11 3 27 4.91780755E+00
  11 4 1 4.93150901E+00
  11 4 27 4.91780755E+00
  11 5 1 4.93150901E+00
  11 5 27 4.91780755E+00
  11 6 1 4.93150901E+00
  11 6 27 4.91780755E+00
  11 7 1 4.93150901E+00
  11 7 27 4.91780755E+00
  11 8 1 4.93150901E+00
  11 8 27 4.91780755E+00
  11 9 1 4.93150901E+00
  11 9 27 4.91780755E+00
  11 10 1 4.93150901E+00
  11 10 27 4.91780755E+00
  11 11 1 4.93150901E+00
  11 11 27 4.91780755E+00
  11 12 1 4.93150901E+00
  11 12 27 4.91780755E+00
  11 13 1 4.93150901E+00
  11 13 27 4.91780755E+00
  11 14 1 4.93150901E+00
  11 14 27 4.91780755E+00
  11 15 1 4.93150901E+00
  11 15 27 4.91780755E+00
  11 16 1 4.93150901E+00
  11 16 27 4.91780755E+00
  12 1 1 4.93085647E+00
  12 1 27 4.91715488E+00
  12 2 1 4.93085647E+00
  12 2 27 4.91715488E+00
  12 3 1 4.93085647E+00
  12 3 27 4.91715488E+00
  12 4 1 4.93085647E+00
  12 4 27 4.91715488E+00
  12 5 1 4.93085647E+00
  12 5 27 4.91715488E+00
  12 6 1 4.93085647E+00
  12 6 27 4.91715488E+00
  12 7 1 4.93085647E+00
  12 7 27 4.91715488E+00
  12 8 1 4.93085647E+00
  12 8 27 4.91715488E+00
  12 9 1 4.93085647E+00
  12 9 27 4.91715488E+00
  12 10 1 4.93085647E+00
  12 10 27 4.91715488E+00
  12 11 1 4.93085647E+00
  12 11 27 4.91715488E+00
  12 12 1 4.93085647E+00
  12 12 27 4.91715488E+00
  12 13 1 4.93085647E+00
  12 13 27 4.91715488E+00
  12 14 1 4.93085647E+00
  12 14 27 4.91715488E+00
  12 15 1 4.93085647E+00
  12 15 27 4.91715488E+00
  12 16 1 4.93085647E+00
  12 16 27 4.91715488E+00
  13 1 1 4.93085647E+00
  13 1 27 4.91715488E+00
  13 2 1 4.93085647E+00
  13 2 27 4.91715488E+00
  13 3 1 4.93085647E+00
  13 3 27 4.91715488E+00
  13 4 1 4.93085647E+00
  13 4 27 4.91715488E+00
  13 5 1 4.93085647E+00
  13 5 27 4.91715488E+00
  13 6 1 4.93085647E+00
  13 6 27 4.91715488E+00
  13 7 1 4.93085647E+00
  13 7 27 4.91715488E+00
  13 8 1 4.93085647E+00
  13 8 27 4.91715488E+00
  13 9 1 4.93085647E+00
  13 9 27 4.91715488E+00
  13 10 1 4.93085647E+00
  13 10 27 4.91715488E+00
  13 11 1 4.93085647E+00
  13 11 27 4.91715488E+00
  13 12 1 4.93085647E+00
  13 12 27 4.91715488E+00
  13 13 1 4.93085647E+00
  13 13 27 4.91715488E+00
  13 14 1 4.93085647E+00
  13 14 27 4.91715488E+00
  13 15 1 4.93085647E+00
  13 15 27 4.91715488E+00
  13 16 1 4.93085647E+00
  13 16 27 4.91715488E+00
  14 1 1 4.93024743E+00
  14 1 27 4.91654572E+00
  14 2 1 4.93024743E+00
  14 2 27 4.91654572E+00
  14 3 1 4.93024743E+00
  14 3 27 4.91654572E+00
  14 4 1 4.93024743E+00
  14 4 27 4.91654572E+00
  14 5 1 4.93024743E+00
  14 5 27 4.91654572E+00
  14 6 1 4.93024743E+00
  14 6 27 4.91654572E+00
  14 7 1 4.93024743E+00
  14 7 27 4.91654572E+00
  14 8 1 4.93024743E+00
  14 8 27 4.91654572E+00
  14 9 1 4.93024743E+00
  14 9 27 4.91654572E+00
  14 10 1 4.93024743E+00
  14 10 27 4.91654572E+00
  14 11 1 4.93024743E+00
  14 11 27 4.91654572E+00
  14 12 1 4.93024743E+00
  14 12 27 4.91654572E+00
  14 13 1 4.93024743E+00
  14 13 27 4.91654572E+00
  14 14 1 4.93024743E+00
  14 14 27 4.91654572E+00
  14 15 1 4.93024743E+00
  14 15 27 4.91654572E+00
  14 16 1 4.93024743E+00
  14 16 27 4.91654572E+00
  15 1 1 4.93024743E+00
  15 1 27 4.91654572E+00
  15 2 1 4.93024743E+00
  15 2 27 4.91654572E+00
  15 3 1 4.93024743E+00
  15 3 27 4.91654572E+00
  15 4 1 4.93024743E+00
  15 4 27 4.91654572E+00
  15 5 1 4.93024743E+00
  15 5 27 4.91654572E+00
  15 6 1 4.93024743E+00
  15 6 27 4.91654572E+00
  15 7 1 4.93024743E+00
  15 7 27 4.91654572E+00
  15 8 1 4.93024743E+00
  15 8 27 4.91654572E+00
  15 9 1 4.93024743E+00
  15 9 27 4.91654572E+00
  15 10 1 4.93024743E+00
  15 10 27 4.91654572E+00
  15 11 1 4.93024743E+00
  15 11 27 4.91654572E+00
  15 12 1 4.93024743E+00
  15 12 27 4.91654572E+00
  15 13 1 4.93024743E+00
  15 13 27 4.91654572E+00
  15 14 1 4.93024743E+00
  15 14 27 4.91654572E+00
  15 15 1 4.93024743E+00
  15 15 27 4.91654572E+00
  15 16 1 4.93024743E+00
  15 16 27 4.91654572E+00
  16 1 1 4.92968189E+00
  16 1 27 4.91598007E+00
  16 2 1 4.92968189E+00
  16 2 27 4.91598007E+00
  16 3 1 4.92968189E+00
  16 3 27 4.91598007E+00
  16 4 1 4.92968189E+00
  16 4 27 4.91598007E+00
  16 5 1 4.92968189E+00
  16 5 27 4.91598007E+00
  16 6 1 4.92968189E+00
  16 6 27 4.91598007E+00
  16 7 1 4.92968189E+00
  16 7 27 4.91598007E+00
  16 8 1 4.92968189E+00
  16 8 27 4.91598007E+00
  16 9 1 4.92968189E+00
  16 9 27 4.91598007E+00
  16 10 1 4.92968189E+00
  16 10 27 4.91598007E+00
  16 11 1 4.92968189E+00
  16 11 27 4.91598007E+00
  16 12 1 4.92968189E+00
  16 12 27 4.91598007E+00
  16 13 1 4.92968189E+00
  16 13 27 4.91598007E+00
  16 14 1 4.92968189E+00
  16 14 27 4.91598007E+00
  16 15 1 4.92968189E+00
  16 15 27 4.91598007E+00
  16 16 1 4.92968189E+00
  16 16 27 4.91598007E+00
  17 1 1 4.92968189E+00
  17 1 27 4.91598007E+00
  17 2 1 4.92968189E+00
  17 2 27 4.91598007E+00
  17 3 1 4.92968189E+00
  17 3 27 4.91598007E+00
  17 4 1 4.92968189E+00
  17 4 27 4.91598007E+00
  17 5 1 4.92968189E+00
  17 5 27 4.91598007E+00
  17 6 1 4.92968189E+00
  17 6 27 4.91598007E+00
  17 7 1 4.92968189E+00
  17 7 27 4.91598007E+00
  17 8 1 4.92968189E+00
  17 8 27 4.91598007E+00
  17 9 1 4.92968189E+00
  17 9 27 4.91598007E+00
  17 10 1 4.92968189E+00
  17 10 27 4.91598007E+00
  17 11 1 4.92968189E+00
  17 11 27 4.91598007E+00
  17 12 1 4.92968189E+00
  17 12 27 4.91598007E+00
  17 13 1 4.92968189E+00
  17 13 27 4.91598007E+00
  17 14 1 4.92968189E+00
  17 14 27 4.91598007E+00
  17 15 1 4.92968189E+00
  17 15 27 4.91598007E+00
  17 16 1 4.92968189E+00
  17 16 27 4.91598007E+00
  18 1 1 4.92915985E+00
  18 1 27 4.91545793E+00
  18 2 1 4.92915985E+00
  18 2 27 4.91545793E+00
  18 3 1 4.92915985E+00
  18 3 27 4.91545793E+00
  18 4 1 4.92915985E+00
  18 4 27 4.91545793E+00
  18 5 1 4.92915985E+00
  18 5 27 4.91545793E+00
  18 6 1 4.92915985E+00
  18 6 27 4.91545793E+00
  18 7 1 4.92915985E+00
  18 7 27 4.91545793E+00
  18 8 1 4.92915985E+00
  18 8 27 4.91545793E+00
  18 9 1 4.92915985E+00
  18 9 27 4.91545793E+00
  18 10 1 4.92915985E+00
  18 10 27 4.91545793E+00
  18 11 1 4.92915985E+00
  18 11 27 4.91545793E+00
  18 12 1 4.92915985E+00
  18 12 27 4.91545793E+00
  18 13 1 4.92915985E+00
  18 13 27 4.91545793E+00
  18 14 1 4.92915985E+00
  18 14 27 4.91545793E+00
  18 15 1 4.92915985E+00
  18 15 27 4.91545793E+00
  18 16 1 4.92915985E+00
  18 16 27 4.91545793E+00
  19 1 1 4.92915985E+00
  19 1 27 4.91545793E+00
  19 2 1 4.92915985E+00
  19 2 27 4.91545793E+00
  19 3 1 4.92915985E+00
  19 3 27 4.91545793E+00
  19 4 1 4.92915985E+00
  19 4 27 4.91545793E+00
  19 5 1 4.92915985E+00
  19 5 27 4.91545793E+00
  19 6 1 4.92915985E+00
  19 6 27 4.91545793E+00
  19 7 1 4.92915985E+00
  19 7 27 4.91545793E+00
  19 8 1 4.92915985E+00
  19 8 27 4.91545793E+00
  19 9 1 4.92915985E+00
  19 9 27 4.91545793E+00
  19 10 1 4.92915985E+00
  19 10 27 4.91545793E+00
  19 11 1 4.92915985E+00
  19 11 27 4.91545793E+00
  19 12 1 4.92915985E+00
  19 12 27 4.91545793E+00
  19 13 1 4.92915985E+00
  19 13 27 4.91545793E+00
  19 14 1 4.92915985E+00
  19 14 27 4.91545793E+00
  19 15 1 4.92915985E+00
  19 15 27 4.91545793E+00
  19 16 1 4.92915985E+00
  19 16 27 4.91545793E+00
  20 1 1 4.92868132E+00
  20 1 27 4.91497930E+00
  20 2 1 4.92868132E+00
  20 2 27 4.91497930E+00
  20 3 1 4.92868132E+00
  20 3 27 4.91497930E+00
  20 4 1 4.92868132E+00
  20 4 27 4.91497930E+00
  20 5 1 4.92868132E+00
  20 5 27 4.91497930E+00
  20 6 1 4.92868132E+00
  20 6 27 4.91497930E+00
  20 7 1 4.92868132E+00
  20 7 27 4.91497930E+00
  20 8 1 4.92868132E+00
  20 8 27 4.91497930E+00
  20 9 1 4.92868132E+00
  20 9 27 4.91497930E+00
  20 10 1 4.92868132E+00
  20 10 27 4.91497930E+00
  20 11 1 4.92868132E+00
  20 11 27 4.91497930E+00
  20 12 1 4.92868132E+00
  20 12 27 4.91497930E+00
  20 13 1 4.92868132E+00
  20 13 27 4.91497930E+00
  20 14 1 4.92868132E+00
  20 14 27 4.91497930E+00
  20 15 1 4.92868132E+00
  20 15 27 4.91497930E+00
  20 16 1 4.92868132E+00
  20 16 27 4.91497930E+00
  21 1 1 4.92868132E+00
  21 1 27 4.91497930E+00
  21 2 1 4.92868132E+00
  21 2 27 4.91497930E+00
  21 3 1 4.92868132E+00
  21 3 27 4.91497930E+00
  21 4 1 4.92868132E+00
  21 4 27 4.91497930E+00
  21 5 1 4.92868132E+00
  21 5 27 4.91497930E+00
  21 6 1 4.92868132E+00
  21 6 27 4.91497930E+00
  21 7 1 4.92868132E+00
  21 7 27 4.91497930E+00
  21 8 1 4.92868132E+00
  21 8 27 4.91497930E+00
  21 9 1 4.92868132E+00
  21 9 27 4.91497930E+00
  21 10 1 4.92868132E+00
  21 10 27 4.91497930E+00
  21 11 1 4.92868132E+00
  21 11 27 4.91497930E+00
  21 12 1 4.92868132E+00
  21 12 27 4.91497930E+00
  21 13 1 4.92868132E+00
  21 13 27 4.91497930E+00
  21 14 1 4.92868132E+00
  21 14 27 4.91497930E+00
  21 15 1 4.92868132E+00
  21 15 27 4.91497930E+00
  21 16 1 4.92868132E+00
  21 16 27 4.91497930E+00
  22 1 1 4.92824629E+00
  22 1 27 4.91454418E+00
  22 2 1 4.92824629E+00
  22 2 27 4.91454418E+00
  22 3 1 4.92824629E+00
  22 3 27 4.91454418E+00
  22 4 1 4.92824629E+00
  22 4 27 4.91454418E+00
  22 5 1 4.92824629E+00
  22 5 27 4.91454418E+00
  22 6 1 4.92824629E+00
  22 6 27 4.91454418E+00
  22 7 1 4.92824629E+00
  22 7 27 4.91454418E+00
  22 8 1 4.92824629E+00
  22 8 27 4.91454418E+00
  22 9 1 4.92824629E+00
  22 9 27 4.91454418E+00
  22 10 1 4.92824629E+00
  22 10 27 4.91454418E+00
  22 11 1 4.92824629E+00
  22 11 27 4.91454418E+00
  22 12 1 4.92824629E+00
  22 12 27 4.91454418E+00
  22 13 1 4.92824629E+00
  22 13 27 4.91454418E+00
  22 14 1 4.92824629E+00
  22 14 27 4.91454418E+00
  22 15 1 4.92824629E+00
  22 15 27 4.91454418E+00
  22 16 1 4.92824629E+00
  22 16 27 4.91454418E+00
  23 1 1 4.92824629E+00
  23 1 27 4.91454418E+00
  23 2 1 4.92824629E+00
  23 2 27 4.91454418E+00
  23 3 1 4.92824629E+00
  23 3 27 4.91454418E+00
  23 4 1 4.92824629E+00
  23 4 27 4.91454418E+00
  23 5 1 4.92824629E+00
  23 5 27 4.91454418E+00
  23 6 1 4.92824629E+00
  23 6 27 4.91454418E+00
  23 7 1 4.92824629E+00
  23 7 27 4.91454418E+00
  23 8 1 4.92824629E+00
  23 8 27 4.91454418E+00
  23 9 1 4.92824629E+00
  23 9 27 4.91454418E+00
  23 10 1 4.92824629E+00
  23 10 27 4.91454418E+00
  23 11 1 4.92824629E+00
  23 11 27 4.91454418E+00
  23 12 1 4.92824629E+00
  23 12 27 4.91454418E+00
  23 13 1 4.92824629E+00
  23 13 27 4.91454418E+00
  23 14 1 4.92824629E+00
  23 14 27 4.91454418E+00
  23 15 1 4.92824629E+00
  23 15 27 4.91454418E+00
  23 16 1 4.92824629E+00
  23 16 27 4.91454418E+00
  24 1 1 4.92785476E+00
  24 1 27 4.91415258E+00
  24 2 1 4.92785476E+00
  24 2 27 4.91415258E+00
  24 3 1 4.92785476E+00
  24 3 27 4.91415258E+00
  24 4 1 4.92785476E+00
  24 4 27 4.91415258E+00
  24 5 1 4.92785476E+00
  24 5 27 4.91415258E+00
  24 6 1 4.92785476E+00
  24 6 27 4.91415258E+00
  24 7 1 4.92785476E+00
  24 7 27 4.91415258E+00
  24 8 1 4.92785476E+00
  24 8 27 4.91415258E+00
  24 9 1 4.92785476E+00
  24 9 27 4.91415258E+00
  24 10 1 4.92785476E+00
  24 10 27 4.91415258E+00
  24 11 1 4.92785476E+00
  24 11 27 4.91415258E+00
  24 12 1 4.92785476E+00
  24 12 27 4.91415258E+00
  24 13 1 4.92785476E+00
  24 13 27 4.91415258E+00
  24 14 1 4.92785476E+00
  24 14 27 4.91415258E+00
  24 15 1 4.92785476E+00
  24 15 27 4.91415258E+00
  24 16 1 4.92785476E+00
  24 16 27 4.91415258E+00
  25 1 1 4.92785476E+00
  25 1 27 4.91415258E+00
  25 2 1 4.92785476E+00
  25 2 27 4.91415258E+00
  25 3 1 4.92785476E+00
  25 3 27 4.91415258E+00
  25 4 1 4.92785476E+00
  25 4 27 4.91415258E+00
  25 5 1 4.92785476E+00
  25 5 27 4.91415258E+00
  25 6 1 4.92785476E+00
  25 6 27 4.91415258E+00
  25 7 1 4.92785476E+00
  25 7 27 4.91415258E+00
  25 8 1 4.92785476E+00
  25 8 27 4.91415258E+00
  25 9 1 4.92785476E+00
  25 9 27 4.91415258E+00
  25 10 1 4.92785476E+00
  25 10 27 4.91415258E+00
  25 11 1 4.92785476E+00
  25 11 27 4.91415258E+00
  25 12 1 4.92785476E+00
  25 12 27 4.91415258E+00
  25 13 1 4.92785476E+00
  25 13 27 4.91415258E+00
  25 14 1 4.92785476E+00
  25 14 27 4.91415258E+00
  25 15 1 4.92785476E+00
  25 15 27 4.91415258E+00
  25 16 1 4.92785476E+00
  25 16 27 4.91415258E+00
  26 1 1 4.92750673E+00
  26 1 27 4.91380448E+00
  26 2 1 4.92750673E+00
  26 2 27 4.91380448E+00
  26 3 1 4.92750673E+00
  26 3 27 4.91380448E+00
  26 4 1 4.92750673E+00
  26 4 27 4.91380448E+00
  26 5 1 4.92750673E+00
  26 5 27 4.91380448E+00
  26 6 1 4.92750673E+00
  26 6 27 4.91380448E+00
  26 7 1 4.92750673E+00
  26 7 27 4.91380448E+00
  26 8 1 4.92750673E+00
  26 8 27 4.91380448E+00
  26 9 1 4.92750673E+00
  26 9 27 4.91380448E+00
  26 10 1 4.92750673E+00
  26 10 27 4.91380448E+00
  26 11 1 4.92750673E+00
  26 11 27 4.91380448E+00
  26 12 1 4.92750673E+00
  26 12 27 4.91380448E+00
  26 13 1 4.92750673E+00
  26 13 27 4.91380448E+00
  26 14 1 4.92750673E+00
  26 14 27 4.91380448E+00
  26 15 1 4.92750673E+00
  26 15 27 4.91380448E+00
  26 16 1 4.92750673E+00
  26 16 27 4.91380448E+00
  27 1 1 4.92750673E+00
  27 1 27 4.91380448E+00
  27 2 1 4.92750673E+00
  27 2 27 4.91380448E+00
  27 3 1 4.92750673E+00
  27 3 27 4.91380448E+00
  27 4 1 4.92750673E+00
  27 4 27 4.91380448E+00
  27 5 1 4.92750673E+00
  27 5 27 4.91380448E+00
  27 6 1 4.92750673E+00
  27 6 27 4.91380448E+00
  27 7 1 4.92750673E+00
  27 7 27 4.91380448E+00
  27 8 1 4.92750673E+00
  27 8 27 4.91380448E+00
  27 9 1 4.92750673E+00
  27 9 27 4.91380448E+00
  27 10 1 4.92750673E+00
  27 10 27 4.91380448E+00
  27 11 1 4.92750673E+00
  27 11 27 4.91380448E+00
  27 12 1 4.92750673E+00
  27 12 27 4.91380448E+00
  27 13 1 4.92750673E+00
  27 13 27 4.91380448E+00
  27 14 1 4.92750673E+00
  27 14 27 4.91380448E+00
  27 15 1 4.92750673E+00
  27 15 27 4.91380448E+00
  27 16 1 4.92750673E+00
  27 16 27 4.91380448E+00
  28 1 1 4.92720220E+00
  28 1 27 4.91349990E+00
  28 2 1 4.92720220E+00
  28 2 27 4.91349990E+00
  28 3 1 4.92720220E+00
  28 3 27 4.91349990E+00
  28 4 1 4.92720220E+00
  28 4 27 4.91349990E+00
  28 5 1 4.92720220E+00
  28 5 27 4.91349990E+00
  28 6 1 4.92720220E+00
  28 6 27 4.91349990E+00
  28 7 1 4.92720220E+00
  28 7 27 4.91349990E+00
  28 8 1 4.92720220E+00
  28 8 27 4.91349990E+00
  28 9 1 4.92720220E+00
  28 9 27 4.91349990E+00
  28 10 1 4.92720220E+00
  28 10 27 4.91349990E+00
  28 11 1 4.92720220E+00
  28 11 27 4.91349990E+00
  28 12 1 4.92720220E+00
  28 12 27 4.91349990E+00
  28 13 1 4.92720220E+00
  28 13 27 4.91349990E+00
  28 14 1 4.92720220E+00
  28 14 27 4.91349990E+00
  28 15 1 4.92720220E+00
  28 15 27 4.91349990E+00
  28 16 1 4.92720220E+00
  28 16 27 4.91349990E+00
  29 1 1 4.92720220E+00
  29 1 27 4.91349990E+00
  29 2 1 4.92720220E+00
  29 2 27 4.91349990E+00
  29 3 1 4.92720220E+00
  29 3 27 4.91349990E+00
  29 4 1 4.92720220E+00
  29 4 27 4.91349990E+00
  29 5 1 4.92720220E+00
  29 5 27 4.91349990E+00
  29 6 1 4.92720220E+00
  29 6 27 4.91349990E+00
  29 7 1 4.92720220E+00
  29 7 27 4.91349990E+00
  29 8 1 4.92720220E+00
  29 8 27 4.91349990E+00
  29 9 1 4.92720220E+00
  29 9 27 4.91349990E+00
  29 10 1 4.92720220E+00
  29 10 27 4.91349990E+00
  29 11 1 4.92720220E+00
  29 11 27 4.91349990E+00
  29 12 1 4.92720220E+00
  29 12 27 4.91349990E+00
  29 13 1 4.92720220E+00
  29 13 27 4.91349990E+00
  29 14 1 4.92720220E+00
  29 14 27 4.91349990E+00
  29 15 1 4.92720220E+00
  29 15 27 4.91349990E+00
  29 16 1 4.92720220E+00
  29 16 27 4.91349990E+00
  30 1 1 4.92694118E+00
  30 1 27 4.91323882E+00
  30 2 1 4.92694118E+00
  30 2 27 4.91323882E+00
  30 3 1 4.92694118E+00
  30 3 27 4.91323882E+00
  30 4 1 4.92694118E+00
  30 4 27 4.91323882E+00
  30 5 1 4.92694118E+00
  30 5 27 4.91323882E+00
  30 6 1 4.92694118E+00
  30 6 27 4.91323882E+00
  30 7 1 4.92694118E+00
  30 7 27 4.91323882E+00
  30 8 1 4.92694118E+00
  30 8 27 4.91323882E+00
  30 9 1 4.92694118E+00
  30 9 27 4.91323882E+00
  30 10 1 4.92694118E+00
  30 10 27 4.91323882E+00
  30 11 1 4.92694118E+00
  30 11 27 4.91323882E+00
  30 12 1 4.92694118E+00
  30 12 27 4.91323882E+00
  30 13 1 4.92694118E+00
  30 13 27 4.91323882E+00
  30 14 1 4.92694118E+00
  30 14 27 4.91323882E+00
  30 15 1 4.92694118E+00
  30 15 27 4.91323882E+00
  30 16 1 4.92694118E+00
  30 16 27 4.91323882E+00
  31 1 1 4.92694118E+00
  31 1 27 4.91323882E+00
  31 2 1 4.92694118E+00
  31 2 27 4.91323882E+00
  31 3 1 4.92694118E+00
  31 3 27 4.91323882E+00
  31 4 1 4.92694118E+00
  31 4 27 4.91323882E+00
  31 5 1 4.92694118E+00
  31 5 27 4.91323882E+00
  31 6 1 4.92694118E+00
  31 6 27 4.91323882E+00
  31 7 1 4.92694118E+00
  31 7 27 4.91323882E+00
  31 8 1 4.92694118E+00
  31 8 27 4.91323882E+00
  31 9 1 4.92694118E+00
  31 9 27 4.91323882E+00
  31 10 1 4.92694118E+00
  31 10 27 4.91323882E+00
  31 11 1 4.92694118E+00
  31 11 27 4.91323882E+00
  31 12 1 4.92694118E+00
  31 12 27 4.91323882E+00
  31 13 1 4.92694118E+00
  31 13 27 4.91323882E+00
  31 14 1 4.92694118E+00
  31 14 27 4.91323882E+00
  31 15 1 4.92694118E+00
  31 15 27 4.91323882E+00
  31 16 1 4.92694118E+00
  31 16 27 4.91323882E+00
  32 1 1 4.92672366E+00
  32 1 27 4.91302126E+00
  32 2 1 4.92672366E+00
  32 2 27 4.91302126E+00
  32 3 1 4.92672366E+00
  32 3 27 4.91302126E+00
  32 4 1 4.92672366E+00
  32 4 27 4.91302126E+00
  32 5 1 4.92672366E+00
  32 5 27 4.91302126E+00
  32 6 1 4.92672366E+00
  32 6 27 4.91302126E+00
  32 7 1 4.92672366E+00
  32 7 27 4.91302126E+00
  32 8 1 4.92672366E+00
  32 8 27 4.91302126E+00
  32 9 1 4.92672366E+00
  32 9 27 4.91302126E+00
  32 10 1 4.92672366E+00
  32 10 27 4.91302126E+00
  32 11 1 4.92672366E+00
  32 11 27 4.91302126E+00
  32 12 1 4.92672366E+00
  32 12 27 4.91302126E+00
  32 13 1 4.92672366E+00
  32 13 27 4.91302126E+00
  32 14 1 4.92672366E+00
  32 14 27 4.91302126E+00
  32 15 1 4.92672366E+00
  32 15 27 4.91302126E+00
  32 16 1 4.92672366E+00
  32 16 27 4.91302126E+00
  33 1 1 4.92672366E+00
  33 1 27 4.91302126E+00
  33 2 1 4.92672366E+00
  33 2 27 4.91302126E+00
  33 3 1 4.92672366E+00
  33 3 27 4.91302126E+00
  33 4 1 4.92672366E+00
  33 4 27 4.91302126E+00
  33 5 1 4.92672366E+00
  33 5 27 4.91302126E+00
  33 6 1 4.92672366E+00
  33 6 27 4.91302126E+00
  33 7 1 4.92672366E+00
  33 7 27 4.91302126E+00
  33 8 1 4.92672366E+00
  33 8 27 4.91302126E+00
  33 9 1 4.92672366E+00
  33 9 27 4.91302126E+00
  33 10 1 4.92672366E+00
  33 10 27 4.91302126E+00
  33 11 1 4.92672366E+00
  33 11 27 4.91302126E+00
  33 12 1 4.92672366E+00
  33 12 27 4.91302126E+00
  33 13 1 4.92672366E+00
  33 13 27 4.91302126E+00
  33 14 1 4.92672366E+00
  33 14 27 4.91302126E+00
  33 15 1 4.92672366E+00
  33 15 27 4.91302126E+00
  33 16 1 4.92672366E+00
  33 16 27 4.91302126E+00
  34 1 1 4.92654965E+00
  34 1 27 4.91284721E+00
  34 2 1 4.92654965E+00
  34 2 27 4.91284721E+00
  34 3 1 4.92654965E+00
  34 3 27 4.91284721E+00
  34 4 1 4.92654965E+00
  34 4 27 4.91284721E+00
  34 5 1 4.92654965E+00
  34 5 27 4.91284721E+00
  34 6 1 4.92654965E+00
  34 6 27 4.91284721E+00
  34 7 1 4.92654965E+00
  34 7 27 4.91284721E+00
  34 8 1 4.92654965E+00
  34 8 27 4.91284721E+00
  34 9 1 4.92654965E+00
  34 9 27 4.91284721E+00
  34 10 1 4.92654965E+00
  34 10 27 4.91284721E+00
  34 11 1 4.92654965E+00
  34 11 27 4.91284721E+00
  34 12 1 4.92654965E+00
  34 12 27 4.91284721E+00
  34 13 1 4.92654965E+00
  34 13 27 4.91284721E+00
  34 14 1 4.92654965E+00
  34 14 27 4.91284721E+00
  34 15 1 4.92654965E+00
  34 15 27 4.91284721E+00
  34 16 1 4.92654965E+00
  34 16 27 4.91284721E+00
  35 1 1 4.92654965E+00
  35 1 27 4.91284721E+00
  35 2 1 4.92654965E+00
  35 2 27 4.91284721E+00
  35 3 1 4.92654965E+00
  35 3 27 4.91284721E+00
  35 4 1 4.92654965E+00
  35 4 27 4.91284721E+00
  35 5 1 4.92654965E+00
  35 5 27 4.91284721E+00
  35 6 1 4.92654965E+00
  35 6 27 4.91284721E+00
  35 7 1 4.92654965E+00
  35 7 27 4.91284721E+00
  35 8 1 4.92654965E+00
  35 8 27 4.91284721E+00
  35 9 1 4.92654965E+00
  35 9 27 4.91284721E+00
  35 10 1 4.92654965E+00
  35 10 27 4.91284721E+00
  35 11 1 4.92654965E+00
  35 11 27 4.91284721E+00
  35 12 1 4.92654965E+00
  35 12 27 4.91284721E+00
  35 13 1 4.92654965E+00
  35 13 27 4.91284721E+00
  35 14 1 4.92654965E+00
  35 14 27 4.91284721E+00
  35 15 1 4.92654965E+00
  35 15 27 4.91284721E+00
  35 16 1 4.92654965E+00
  35 16 27 4.91284721E+00
  36 1 1 4.92641914E+00
  36 1 27 4.91271668E+00
  36 2 1 4.92641914E+00
  36 2 27 4.91271668E+00
  36 3 1 4.92641914E+00
  36 3 27 4.91271668E+00
  36 4 1 4.92641914E+00
  36 4 27 4.91271668E+00
  36 5 1 4.92641914E+00
  36 5 27 4.91271668E+00
  36 6 1 4.92641914E+00
  36 6 27 4.91271668E+00
  36 7 1 4.92641914E+00
  36 7 27 4.91271668E+00
  36 8 1 4.92641914E+00
  36 8 27 4.91271668E+00
  36 9 1 4.92641914E+00
  36 9 27 4.91271668E+00
  36 10 1 4.92641914E+00
  36 10 27 4.91271668E+00
  36 11 1 4.92641914E+00
  36 11 27 4.91271668E+00
  36 12 1 4.92641914E+00
  36 12 27 4.91271668E+00
  36 13 1 4.92641914E+00
  36 13 27 4.91271668E+00
  36 14 1 4.92641914E+00
  36 14 27 4.91271668E+00
  36 15 1 4.92641914E+00
  36 15 27 4.91271668E+00
  36 16 1 4.92641914E+00
  36 16 27 4.91271668E+00
  37 1 1 4.92641914E+00
  37 1 27 4.91271668E+00
  37 2 1 4.92641914E+00
  37 2 27 4.91271668E+00
  37 3 1 4.92641914E+00
  37 3 27 4.91271668E+00
  37 4 1 4.92641914E+00
  37 4 27 4.91271668E+00
  37 5 1 4.92641914E+00
  37 5 27 4.91271668E+00
  37 6 1 4.92641914E+00
  37 6 27 4.91271668E+00
  37 7 1 4.92641914E+00
  37 7 27 4.91271668E+00
  37 8 1 4.92641914E+00
  37 8 27 4.91271668E+00
  37 9 1 4.92641914E+00
  37 9 27 4.91271668E+00
  37 10 1 4.92641914E+00
  37 10 27 4.91271668E+00
  37 11 1 4.92641914E+00
  37 11 27 4.91271668E+00
  37 12 1 4.92641914E+00
  37 12 27 4.91271668E+00
  37 13 1 4.92641914E+00
  37 13 27 4.91271668E+00
  37 14 1 4.92641914E+00
  37 14 27 4.91271668E+00
  37 15 1 4.92641914E+00
  37 15 27 4.91271668E+00
  37 16 1 4.92641914E+00
  37 16 27 4.91271668E+00
  38 1 1 4.92633213E+00
  38 1 27 4.91262965E+00
  38 2 1 4.92633213E+00
  38 2 27 4.91262965E+00
  38 3 1 4.92633213E+00
  38 3 27 4.91262965E+00
  38 4 1 4.92633213E+00
  38 4 27 4.91262965E+00
  38 5 1 4.92633213E+00
  38 5 27 4.91262965E+00
  38 6 1 4.92633213E+00
  38 6 27 4.91262965E+00
  38 7 1 4.92633213E+00
  38 7 27 4.91262965E+00
  38 8 1 4.92633213E+00
  38 8 27 4.91262965E+00
  38 9 1 4.92633213E+00
  38 9 27 4.91262965E+00
  38 10 1 4.92633213E+00
  38 10 27 4.91262965E+00
  38 11 1 4.92633213E+00
  38 11 27 4.91262965E+00
  38 12 1 4.92633213E+00
  38 12 27 4.91262965E+00