# File generated by Flopy version 3.9.1 on 06/21/2025 at 17:08:05.
BEGIN options
  READASARRAYS
END options

BEGIN period  1
  recharge
    CONSTANT       0.00456600
END period  1

