# File generated by Flopy version 3.8.2 on 06/20/2025 at 16:25:42.
BEGIN options
  SAVE_SPECIFIC_DISCHARGE
END options

BEGIN griddata
  icelltype
    CONSTANT  0
  k
    CONSTANT  1.00000000E+06
END griddata

