# Name file for MT3DMS, generated by Flopy version 3.9.1.
LIST              16  Chapman_model_mt.list
FTL               10  mt3d_link.ftl 
BTN               31  Chapman_model_mt.btn
ADV               32  Chapman_model_mt.adv
DSP               33  Chapman_model_mt.dsp
SSM               34  Chapman_model_mt.ssm
GCG               35  Chapman_model_mt.gcg
