# File generated by Flopy version 3.8.2 on 06/03/2025 at 11:41:07.
BEGIN options
  PRINT_OPTION  summary
  COMPLEXITY  complex
END options

