# File generated by Flopy version 3.8.2 on 02/13/2025 at 14:54:35.
BEGIN options
  BUDGET  FILEOUT  ex01b.cbc
  HEAD  FILEOUT  ex01b.hds
END options

BEGIN period  1
  SAVE  HEAD  ALL
  SAVE  BUDGET  ALL
END period  1

