# File generated by Flopy version 3.9.1 on 06/18/2025 at 11:41:09.
BEGIN options
  TIME_UNITS  days
END options

BEGIN dimensions
  NPER  1
END dimensions

BEGIN perioddata
    1000.00000000  100       1.05000000
END perioddata

