# File generated by Flopy version 3.9.1 on 06/24/2025 at 12:23:19.
BEGIN options
END options

BEGIN griddata
  strt
    CONSTANT       0.00000000
END griddata

