# Pleasant Lake test case version 0.1.post105.dev0+g3fba9cb
# File generated by Flopy version 3.10.0.dev1 on 11/04/2025 at 06:13:22.
# via modflow-setup version 0.6.0 at 2025-11-04 06:13:23
BEGIN options
END options

BEGIN continuous  FILEOUT  plsnt_lgr_parent.wel.obs.output.csv
  pleasant_3-13-28  wel  pleasant_3-13-28
  pleasant_3-24-27  wel  pleasant_3-24-27
END continuous  FILEOUT  plsnt_lgr_parent.wel.obs.output.csv

