# plsnt_lgr_inset model version 0.post105.dev0+g3fba9cb
# File generated by Flopy version 3.10.0.dev1 on 11/04/2025 at 06:13:23.
# via modflow-setup version 0.6.0 at 2025-11-04 06:13:23
BEGIN options
  BUDGET  FILEOUT  plsnt_lgr_inset.cbc
  HEAD  FILEOUT  plsnt_lgr_inset.hds
END options

BEGIN period  1
  SAVE  head  last
  SAVE  budget  last
END period  1

