# File generated by Flopy version 3.9.1 on 06/21/2025 at 10:53:33.
BEGIN options
END options

