# File generated by Flopy version 3.9.1 on 06/21/2025 at 10:53:33.
BEGIN options
  TIME_UNITS  seconds
END options

BEGIN dimensions
  NPER  1
END dimensions

BEGIN perioddata
   86400.00000000  288       1.00000000
END perioddata

