# File generated by Flopy version 3.9.1 on 04/15/2025 at 09:55:17.
BEGIN options
  PRINT_INPUT
END options

BEGIN continuous  FILEOUT  ex-gwf-sfr-psa.sfr.obs.csv
  inflow-ext  ext-inflow  1
  inflow  inflow  25
  outflow  outflow  25
  stage  stage  25
  depth  depth  24
END continuous  FILEOUT  ex-gwf-sfr-psa.sfr.obs.csv

