# File generated by Flopy version 3.9.1 on 04/15/2025 at 09:55:17.
BEGIN options
END options

