# File generated by Flopy version 3.9.1 on 04/15/2025 at 08:46:30.
BEGIN options
END options

BEGIN griddata
  iconvert
    CONSTANT  1
  ss
    CONSTANT  1.00000000E-07
  sy
    CONSTANT       0.25000000
END griddata

BEGIN period  1
  TRANSIENT
END period  1

