# File generated by Flopy version 3.9.1 on 04/15/2025 at 09:55:17.
BEGIN options
END options

BEGIN timing
  TDIS6  ex-gwf-sfr-psa.tdis
END timing

BEGIN models
  gwf6  ex-gwf-sfr-psa.nam  ex-gwf-sfr-psa
END models

BEGIN exchanges
END exchanges

BEGIN solutiongroup  1
  ims6  ex-gwf-sfr-psa.ims  ex-gwf-sfr-psa
END solutiongroup  1

