# File generated by Flopy version 3.9.1 on 06/21/2025 at 17:11:21.
BEGIN options
END options

BEGIN dimensions
  MAXBOUND  1
END dimensions

BEGIN period  1
  1 26 26 -1
END period  1

