# File generated by Flopy version 3.9.1 on 05/13/2025 at 09:16:08.
BEGIN options
  BUDGET  FILEOUT  ex-gwf-hani_c.cbc
  HEAD  FILEOUT  ex-gwf-hani_c.hds
END options

BEGIN period  1
  SAVE  HEAD  ALL
  SAVE  BUDGET  ALL
END period  1

