# File generated by Flopy version 3.9.1 on 05/05/2025 at 06:09:27.
BEGIN options
  READASARRAYS
END options

BEGIN period  1
  recharge
    CONSTANT       0.01160000
END period  1

