# File generated by Flopy version 3.9.1 on 05/05/2025 at 06:09:27.
BEGIN options
END options

BEGIN griddata
  strt
    CONSTANT     115.00000000
END griddata

