# File generated by Flopy version 3.9.1 on 05/05/2025 at 06:09:27.
BEGIN options
  DIGITS  10
  PRINT_INPUT
END options

BEGIN continuous  FILEOUT  ex-gwf-lak-p02.lak.obs.csv
  lake1  stage  1
  lake2  stage  2
END continuous  FILEOUT  ex-gwf-lak-p02.lak.obs.csv

