# File generated by Flopy version 3.9.1 on 05/12/2025 at 09:55:51.
BEGIN options
  
  SAVE_SPECIFIC_DISCHARGE
END options

BEGIN griddata
  icelltype
    CONSTANT  0
  k
    CONSTANT       1.00000000
  k22
    CONSTANT       0.01000000
  angle1
    CONSTANT      90.00000000
END griddata

