# File generated by Flopy version 3.8.2 on 01/26/2025 at 08:43:15.
BEGIN options
  DIGITS  9
END options

BEGIN continuous  FILEOUT  riv.csv
  riv  riv  riv
END continuous  FILEOUT  riv.csv

