# File generated by Flopy version 3.9.1 on 06/30/2025 at 16:52:25.
BEGIN options
END options

BEGIN griddata
  strt
    CONSTANT     100.00000000
END griddata

