# File generated by Flopy version 3.9.1 on 06/30/2025 at 16:52:25.
BEGIN options
  BUDGET  FILEOUT  ex-gwf-csub-p04.cbc
  HEAD  FILEOUT  ex-gwf-csub-p04.hds
END options

BEGIN period  1
  SAVE  BUDGET  ALL
  SAVE  HEAD  ALL
  PRINT  BUDGET  ALL
END period  1

