# File generated by Flopy version 3.9.1 on 06/30/2025 at 16:52:25.
BEGIN options
END options

BEGIN griddata
  iconvert  LAYERED
    CONSTANT  1
    CONSTANT  0
    CONSTANT  0
    CONSTANT  0
  ss
    CONSTANT       0.00000000
  sy  LAYERED
    CONSTANT       0.30000000
    CONSTANT       0.30000000
    CONSTANT       0.40000000
    CONSTANT       0.30000000
END griddata

BEGIN period  1
  STEADY-STATE
END period  1

BEGIN period  2
  TRANSIENT
END period  2

