# File generated by Flopy version 3.9.1 on 06/30/2025 at 16:52:25.
BEGIN options
  TIME_UNITS  days
END options

BEGIN dimensions
  NPER  3
END dimensions

BEGIN perioddata
       0.00000000  1       1.00000000
   21915.00000000  60       1.00000000
   21915.00000000  60       1.00000000
END perioddata

