# File generated by Flopy version 3.9.1 on 06/30/2025 at 16:52:25.
BEGIN options
END options

BEGIN dimensions
  MAXBOUND  2
END dimensions

BEGIN period  2
  2 9 10 -72000
  4 12 7 -72000
END period  2

BEGIN period  3
  2 9 10 0.00000000E+00
  4 12 7 0.00000000E+00
END period  3

