# File generated by Flopy version 3.9.1 on 02/28/2025 at 13:50:24.
BEGIN options
END options

BEGIN griddata
  strt
    CONSTANT     320.00000000
END griddata

