# File generated by Flopy version 3.9.1 on 02/28/2025 at 13:50:24.
BEGIN options
END options

BEGIN dimensions
  MAXBOUND  21
END dimensions

BEGIN period  1
  1 1 20 320 1.00000000E+05 318
  1 2 20 320 1.00000000E+05 318
  1 3 20 320 1.00000000E+05 318
  1 4 20 320 1.00000000E+05 318
  1 5 20 320 1.00000000E+05 318
  1 6 20 320 1.00000000E+05 318
  1 7 20 320 1.00000000E+05 318
  1 8 20 320 1.00000000E+05 318
  1 9 20 320 1.00000000E+05 318
  1 10 20 320 1.00000000E+05 318
  1 11 20 320 1.00000000E+05 318
  1 12 20 320 1.00000000E+05 318
  1 13 20 320 1.00000000E+05 318
  1 14 20 320 1.00000000E+05 318
  1 15 20 320 1.00000000E+05 318
  1 16 20 320 1.00000000E+05 318
  1 17 20 320 1.00000000E+05 318
  1 18 20 320 1.00000000E+05 318
  1 19 20 320 1.00000000E+05 318
  1 20 20 320 1.00000000E+05 318
  1 21 20 320 1.00000000E+05 318
END period  1

