# File generated by Flopy version 3.9.1 on 02/28/2025 at 13:50:24.
BEGIN options
  READASARRAYS
END options

BEGIN period  1
  recharge
    CONSTANT       0.00500000
END period  1

