# File generated by Flopy version 3.9.1 on 02/28/2025 at 13:50:24.
BEGIN options
  BUDGET  FILEOUT  ex01b.cbc
  HEAD  FILEOUT  ex01b.hds
END options

BEGIN period  1
  SAVE  HEAD  ALL
  SAVE  BUDGET  ALL
END period  1

