# File generated by Flopy version 3.9.1 on 02/28/2025 at 13:50:24.
BEGIN options
  SAVE_FLOWS
END options

BEGIN packages
  DIS6  ex01b.dis  dis
  NPF6  ex01b.npf  npf
  RCH6  ex01b.rcha  rcha_0
  IC6  ex01b.ic  ic
  WEL6  ex01b.wel  wel_0
  RIV6  ex01b.riv  riv_0
  OC6  ex01b.oc  oc
END packages

