# File generated by Flopy version 3.9.1 on 02/28/2025 at 13:50:24.
BEGIN options
  PRINT_INPUT
END options

BEGIN dimensions
  MAXBOUND  1
END dimensions

BEGIN period  1
  3 11 10 -150000
END period  1

