# File generated by Flopy version 3.9.1 on 02/28/2025 at 13:50:24.
BEGIN options
END options

BEGIN timing
  TDIS6  ex01b.tdis
END timing

BEGIN models
  gwf6  ex01b.nam  ex01b
END models

BEGIN exchanges
END exchanges

BEGIN solutiongroup  1
  ims6  ex01b.ims  ex01b
END solutiongroup  1

