# File generated by Flopy version 3.9.1 on 06/21/2025 at 10:00:44.
BEGIN options
  READASARRAYS
END options

BEGIN period  1
  recharge
    CONSTANT  3.00000000E-08
END period  1

