# File generated by Flopy version 3.9.1 on 05/14/2025 at 16:03:23.
BEGIN options
  BUDGET  FILEOUT  ex-gwf-twri01.cbc
  HEAD  FILEOUT  ex-gwf-twri01.hds
END options

BEGIN period  1
  SAVE  HEAD  ALL
  SAVE  BUDGET  ALL
END period  1

