# File generated by Flopy version 3.9.1 on 05/14/2025 at 16:03:23.
BEGIN options
  READASARRAYS
END options

BEGIN period  1
  recharge
    CONSTANT  3.00000000E-08
END period  1

