# File generated by Flopy version 3.9.1 on 04/10/2025 at 15:10:27.
BEGIN options
  TIME_UNITS  days
END options

BEGIN dimensions
  NPER  1
END dimensions

BEGIN perioddata
     365.00000000  1       1.00000000
END perioddata

