# File generated by Flopy version 3.8.2 on 06/20/2025 at 15:16:03.
BEGIN options
  HEAD  FILEOUT  09_nwt_p03.hds
END options

BEGIN period  1
  SAVE  HEAD  ALL
END period  1

