# File generated by Flopy version 3.9.1 on 05/21/2025 at 07:02:34.
BEGIN options
  NEWTON  UNDER_RELAXATION
END options

BEGIN packages
  DIS6  09_nwt_p03.dis  dis
  NPF6  09_nwt_p03.npf  npf
  IC6  09_nwt_p03.ic  ic
  CHD6  09_nwt_p03.chd  chd_0
  RCH6  09_nwt_p03.rcha  rcha_0
  OC6  09_nwt_p03.oc  oc
END packages

