# File generated by Flopy version 3.9.1 on 05/21/2025 at 07:02:34.
BEGIN options
END options

BEGIN griddata
  icelltype
    CONSTANT  1
  k
    CONSTANT       1.00000000
END griddata

