# File generated by Flopy version 3.9.1 on 05/21/2025 at 07:02:34.
BEGIN options
  HEAD  FILEOUT  09_nwt_p03.hds
END options

BEGIN period  1
  SAVE  HEAD  ALL
END period  1

