# WEL package for MODFLOW-2005 generated by Flopy 3.9.1
         1       130 
         1         0 # stress period 1
         3        11        10       -150000.0
