# File generated by Flopy version 3.9.1 on 04/01/2025 at 11:13:03.
BEGIN options
  TIME_UNITS  seconds
END options

BEGIN dimensions
  NPER  1
END dimensions

BEGIN perioddata
   86400.00000000  1       1.00000000
END perioddata

