# File generated by Flopy version 3.9.1 on 04/30/2025 at 10:45:50.
BEGIN options
END options

