# File generated by Flopy version 3.9.1 on 04/11/2025 at 10:57:59.
BEGIN options
END options

BEGIN period  1
  PRINT  budget  all
END period  1

