# File generated by Flopy version 3.9.1 on 05/18/2025 at 14:58:19.
BEGIN options
END options

BEGIN timing
  TDIS6  track_whirl.tdis
END timing

BEGIN models
  gwf6  track_whirl.nam  track_whirl
END models

BEGIN exchanges
END exchanges

BEGIN solutiongroup  1
  ims6  track_whirl.ims  track_whirl
END solutiongroup  1

