# File generated by Flopy version 3.9.1 on 05/18/2025 at 14:58:19.
BEGIN options
  SAVE_FLOWS
END options

BEGIN packages
  DIS6  track_whirl.dis  dis
  IC6  track_whirl.ic  ic
  NPF6  track_whirl.npf  npf
  WEL6  track_whirl.wel  wel
  OC6  track_whirl.oc  oc
END packages

