# Name file for MODPATH 7, generated by Flopy version 3.9.1.
MPBAS      track_whirl_mp.mpbas
GRBDIS     .\track_whirl.dis.grb
TDIS       .\track_whirl.tdis
HEAD       .\track_whirl.hds
BUDGET     .\track_whirl.cbc
