# File generated by Flopy version 3.10.0.dev3 on 06/16/2025 at 06:44:19.
BEGIN options
  PRINT_INPUT
  PRINT_FLOWS
  SAVE_FLOWS
END options

BEGIN dimensions
  MAXBOUND  10
END dimensions

BEGIN period  1
  1 40 6 1.69000000E+01
  1 40 7 1.64000000E+01
  1 40 8 1.61000000E+01
  1 40 9 1.56000000E+01
  1 40 10 1.51000000E+01
  1 40 11 1.51000000E+01
  1 40 12 1.40000000E+01
  1 40 13 1.30000000E+01
  1 40 14 1.25000000E+01
  1 40 15 1.20000000E+01
END period  1

