# File generated by Flopy version 3.9.1 on 06/02/2025 at 16:22:14.
BEGIN options
END options

BEGIN griddata
  strt
    CONSTANT     -10.70000000
END griddata

