# File generated by Flopy version 3.8.2 on 06/20/2025 at 14:20:19.
BEGIN options
  BUDGET  FILEOUT  ex-gwf-csub-p01.cbc
  HEAD  FILEOUT  ex-gwf-csub-p01.hds
END options

BEGIN period  1
  SAVE  HEAD  LAST
  SAVE  BUDGET  LAST
  PRINT  BUDGET  LAST
END period  1

