# File generated by Flopy version 3.8.2 on 06/20/2025 at 14:20:19.
BEGIN options
  SAVE_FLOWS
  NEWTON
END options

BEGIN packages
  DIS6  ex-gwf-csub-p01.dis  dis
  OBS6  ex-gwf-csub-p01.obs  obs_0
  IC6  ex-gwf-csub-p01.ic  ic
  NPF6  ex-gwf-csub-p01.npf  npf
  STO6  ex-gwf-csub-p01.sto  sto
  CSUB6  ex-gwf-csub-p01.csub  csub
  OC6  ex-gwf-csub-p01.oc  oc
END packages

