# File generated by Flopy version 3.8.2 on 06/20/2025 at 14:20:19.
BEGIN options
  SAVE_SPECIFIC_DISCHARGE
END options

BEGIN griddata
  icelltype  LAYERED
    CONSTANT  1
    CONSTANT  0
    CONSTANT  0
  k  LAYERED
    CONSTANT  1.80000000E-05
    CONSTANT  3.50000000E-10
    CONSTANT  3.10000000E-05
END griddata

