# File generated by Flopy version 3.9.1 on 06/02/2025 at 16:22:14.
BEGIN options
  DIGITS  10
  PRINT_INPUT
END options

BEGIN continuous  FILEOUT  gwf_calib_obs.csv
  w3_1_1  HEAD  3 1 12
END continuous  FILEOUT  gwf_calib_obs.csv

