# File generated by Flopy version 3.8.2 on 06/20/2025 at 14:20:19.
BEGIN options
END options

BEGIN griddata
  strt
    CONSTANT     -10.70000000
END griddata

