# File generated by Flopy version 3.8.2 on 02/13/2025 at 14:54:35.
BEGIN options
END options

BEGIN dimensions
  NLAY  3
  NROW  21
  NCOL  20
END dimensions

BEGIN griddata
  delr
    CONSTANT     500.00000000
  delc
    CONSTANT     500.00000000
  top
    CONSTANT     400.00000000
  botm  LAYERED
    CONSTANT     220.00000000
    CONSTANT     200.00000000
    CONSTANT       0.00000000
END griddata

