# File generated by Flopy version 3.9.1 on 05/21/2025 at 08:13:52.
BEGIN options
END options

BEGIN griddata
  strt
    CONSTANT       7.50000000
END griddata

