# File generated by Flopy version 3.9.1 on 05/21/2025 at 08:13:52.
BEGIN options
END options

BEGIN timing
  TDIS6  ex-gwf-bump.tdis
END timing

BEGIN models
  gwf6  ex-gwf-bump.nam  ex-gwf-bump
END models

BEGIN exchanges
END exchanges

BEGIN solutiongroup  1
  ims6  ex-gwf-bump.ims  ex-gwf-bump
END solutiongroup  1

