# File generated by Flopy version 3.10.0.dev3 on 06/13/2025 at 10:04:03.
BEGIN options
  READASARRAYS
  PRINT_INPUT
  PRINT_FLOWS
  SAVE_FLOWS
END options

BEGIN period  1
  recharge
    CONSTANT  1.60000000E-09
END period  1

