# File generated by Flopy version 3.10.0.dev3 on 06/13/2025 at 10:04:03.
BEGIN options
END options

BEGIN griddata
  strt
    INTERNAL  FACTOR  1.0
        45.00000000      45.00000000      45.00000000      45.00000000      45.00000000      45.00000000      45.00000000      45.00000000      45.00000000      45.00000000      45.00000000      45.00000000      45.00000000      45.00000000      45.00000000      45.00000000      45.00000000      45.00000000      45.00000000
        45.00000000      45.00000000      45.00000000      45.00000000      45.00000000      45.00000000      45.00000000      45.00000000      45.00000000      45.00000000      45.00000000      45.00000000      45.00000000      45.00000000      45.00000000      45.00000000      45.00000000      45.00000000      45.00000000
         0.00000000      45.00000000      45.00000000      45.00000000      45.00000000      45.00000000      45.00000000      45.00000000      45.00000000      45.00000000      45.00000000      45.00000000      45.00000000      45.00000000      45.00000000      45.00000000      45.00000000      45.00000000      45.00000000
         0.00000000      45.00000000      45.00000000      45.00000000      45.00000000      45.00000000      45.00000000      45.00000000      45.00000000      45.00000000      45.00000000      45.00000000      45.00000000      45.00000000      45.00000000      45.00000000      45.00000000      45.00000000      45.00000000
         0.00000000       0.00000000      45.00000000      45.00000000      45.00000000      45.00000000      45.00000000      45.00000000      45.00000000      45.00000000      45.00000000      45.00000000      45.00000000      45.00000000      45.00000000      45.00000000      45.00000000      45.00000000      45.00000000
         0.00000000       0.00000000      45.00000000      45.00000000      45.00000000      45.00000000      45.00000000      45.00000000      45.00000000      45.00000000      45.00000000      45.00000000      45.00000000      45.00000000      45.00000000      45.00000000      45.00000000      45.00000000      45.00000000
         0.00000000       0.00000000       0.00000000      45.00000000      45.00000000      45.00000000      45.00000000      45.00000000      45.00000000      45.00000000      45.00000000      45.00000000      45.00000000      45.00000000      45.00000000      45.00000000      45.00000000      45.00000000      45.00000000
         0.00000000       0.00000000       0.00000000      45.00000000      45.00000000      45.00000000      45.00000000      45.00000000      45.00000000      45.00000000      45.00000000      45.00000000      45.00000000      45.00000000      45.00000000      45.00000000      45.00000000      45.00000000      45.00000000
         0.00000000       0.00000000       0.00000000       0.00000000      45.00000000      45.00000000      45.00000000      45.00000000      45.00000000      45.00000000      45.00000000      45.00000000      45.00000000      45.00000000      45.00000000      45.00000000      45.00000000      45.00000000      45.00000000
         0.00000000       0.00000000       0.00000000       0.00000000      45.00000000      45.00000000      45.00000000      45.00000000      45.00000000      45.00000000      45.00000000      45.00000000      45.00000000      45.00000000      45.00000000      45.00000000      45.00000000      45.00000000      45.00000000
         0.00000000       0.00000000       0.00000000       0.00000000       0.00000000      45.00000000      45.00000000      45.00000000      45.00000000      45.00000000      45.00000000      45.00000000      45.00000000      45.00000000      45.00000000      45.00000000      45.00000000      45.00000000      45.00000000
         0.00000000       0.00000000       0.00000000       0.00000000       0.00000000      45.00000000      45.00000000      45.00000000      45.00000000      45.00000000      45.00000000      45.00000000      45.00000000      45.00000000      45.00000000      45.00000000      45.00000000      45.00000000      45.00000000
         0.00000000       0.00000000       0.00000000       0.00000000       0.00000000       0.00000000      45.00000000      45.00000000      45.00000000      45.00000000      45.00000000      45.00000000      45.00000000      45.00000000      45.00000000      45.00000000      45.00000000      45.00000000      45.00000000
         0.00000000       0.00000000       0.00000000       0.00000000       0.00000000       0.00000000      45.00000000      45.00000000      45.00000000      45.00000000      45.00000000      45.00000000      45.00000000      45.00000000      45.00000000      45.00000000      45.00000000      45.00000000      45.00000000
         0.00000000       0.00000000       0.00000000       0.00000000       0.00000000       0.00000000       0.00000000      45.00000000      45.00000000      45.00000000      45.00000000      45.00000000      45.00000000      45.00000000      45.00000000      45.00000000      45.00000000      45.00000000      45.00000000
         0.00000000       0.00000000       0.00000000       0.00000000       0.00000000       0.00000000       0.00000000      45.00000000      45.00000000      45.00000000      45.00000000      45.00000000      45.00000000      45.00000000      45.00000000      45.00000000      45.00000000      45.00000000      45.00000000
         0.00000000       0.00000000       0.00000000       0.00000000       0.00000000       0.00000000       0.00000000       0.00000000      45.00000000      45.00000000      45.00000000      45.00000000      45.00000000      45.00000000      45.00000000      45.00000000      45.00000000      45.00000000      45.00000000
         0.00000000       0.00000000       0.00000000       0.00000000       0.00000000       0.00000000       0.00000000       0.00000000      45.00000000      45.00000000      45.00000000      45.00000000      45.00000000      45.00000000      45.00000000      45.00000000      45.00000000      45.00000000      45.00000000
         0.00000000       0.00000000       0.00000000       0.00000000       0.00000000       0.00000000       0.00000000       0.00000000       0.00000000      45.00000000      45.00000000      45.00000000      45.00000000      45.00000000      45.00000000      45.00000000      45.00000000      45.00000000      45.00000000
         0.00000000       0.00000000       0.00000000       0.00000000       0.00000000       0.00000000       0.00000000       0.00000000       0.00000000      45.00000000      45.00000000      45.00000000      45.00000000      45.00000000      45.00000000      45.00000000      45.00000000      45.00000000      45.00000000
         0.00000000       0.00000000       0.00000000       0.00000000       0.00000000       0.00000000       0.00000000       0.00000000       0.00000000       0.00000000      45.00000000      45.00000000      45.00000000      45.00000000      45.00000000      45.00000000      45.00000000      45.00000000      45.00000000
         0.00000000       0.00000000       0.00000000       0.00000000       0.00000000       0.00000000       0.00000000       0.00000000       0.00000000       0.00000000      45.00000000      45.00000000      45.00000000      45.00000000      45.00000000      45.00000000      45.00000000      45.00000000      45.00000000
         0.00000000       0.00000000       0.00000000       0.00000000       0.00000000       0.00000000       0.00000000       0.00000000       0.00000000       0.00000000       0.00000000      45.00000000      45.00000000      45.00000000      45.00000000      45.00000000      45.00000000      45.00000000      45.00000000
         0.00000000       0.00000000       0.00000000       0.00000000       0.00000000       0.00000000       0.00000000       0.00000000       0.00000000       0.00000000       0.00000000      45.00000000      45.00000000      45.00000000      45.00000000      45.00000000      45.00000000      45.00000000      45.00000000
         0.00000000       0.00000000       0.00000000       0.00000000       0.00000000       0.00000000       0.00000000       0.00000000       0.00000000       0.00000000       0.00000000       0.00000000      45.00000000      45.00000000      45.00000000      45.00000000      45.00000000      45.00000000      45.00000000
         0.00000000       0.00000000       0.00000000       0.00000000       0.00000000       0.00000000       0.00000000       0.00000000       0.00000000       0.00000000       0.00000000       0.00000000      45.00000000      45.00000000      45.00000000      45.00000000      45.00000000      45.00000000      45.00000000
         0.00000000       0.00000000       0.00000000       0.00000000       0.00000000       0.00000000       0.00000000       0.00000000       0.00000000       0.00000000       0.00000000       0.00000000       0.00000000      45.00000000      45.00000000      45.00000000      45.00000000      45.00000000      45.00000000
         0.00000000       0.00000000       0.00000000       0.00000000       0.00000000       0.00000000       0.00000000       0.00000000       0.00000000       0.00000000       0.00000000       0.00000000       0.00000000      45.00000000      45.00000000      45.00000000      45.00000000      45.00000000      45.00000000
         0.00000000       0.00000000       0.00000000       0.00000000       0.00000000       0.00000000       0.00000000       0.00000000       0.00000000       0.00000000       0.00000000       0.00000000       0.00000000       0.00000000      45.00000000      45.00000000      45.00000000      45.00000000      45.00000000
         0.00000000       0.00000000       0.00000000       0.00000000       0.00000000       0.00000000       0.00000000       0.00000000       0.00000000       0.00000000       0.00000000       0.00000000       0.00000000       0.00000000      45.00000000      45.00000000      45.00000000      45.00000000      45.00000000
         0.00000000       0.00000000       0.00000000       0.00000000       0.00000000       0.00000000       0.00000000       0.00000000       0.00000000       0.00000000       0.00000000       0.00000000       0.00000000       0.00000000       0.00000000      45.00000000      45.00000000      45.00000000      45.00000000
         0.00000000       0.00000000       0.00000000       0.00000000       0.00000000       0.00000000       0.00000000       0.00000000       0.00000000       0.00000000       0.00000000       0.00000000       0.00000000       0.00000000       0.00000000      45.00000000      45.00000000      45.00000000      45.00000000
         0.00000000       0.00000000       0.00000000       0.00000000       0.00000000       0.00000000       0.00000000       0.00000000       0.00000000       0.00000000       0.00000000       0.00000000       0.00000000       0.00000000       0.00000000       0.00000000      45.00000000      45.00000000      45.00000000
         0.00000000       0.00000000       0.00000000       0.00000000       0.00000000       0.00000000       0.00000000       0.00000000       0.00000000       0.00000000       0.00000000       0.00000000       0.00000000       0.00000000       0.00000000       0.00000000      45.00000000      45.00000000      45.00000000
         0.00000000       0.00000000       0.00000000       0.00000000       0.00000000       0.00000000       0.00000000       0.00000000       0.00000000       0.00000000       0.00000000       0.00000000       0.00000000       0.00000000       0.00000000       0.00000000       0.00000000      45.00000000      45.00000000
         0.00000000       0.00000000       0.00000000       0.00000000       0.00000000       0.00000000       0.00000000       0.00000000       0.00000000       0.00000000       0.00000000       0.00000000       0.00000000       0.00000000       0.00000000       0.00000000       0.00000000      45.00000000      45.00000000
         0.00000000       0.00000000       0.00000000       0.00000000       0.00000000       0.00000000       0.00000000       0.00000000       0.00000000       0.00000000       0.00000000       0.00000000       0.00000000       0.00000000       0.00000000       0.00000000       0.00000000       0.00000000      45.00000000
         0.00000000       0.00000000       0.00000000       0.00000000       0.00000000       0.00000000       0.00000000       0.00000000       0.00000000       0.00000000       0.00000000       0.00000000       0.00000000       0.00000000       0.00000000       0.00000000       0.00000000       0.00000000      45.00000000
END griddata

