# File generated by Flopy version 3.10.0.dev3 on 06/15/2025 at 07:20:20.
BEGIN options
  TIME_UNITS  seconds
END options

BEGIN dimensions
  NPER  1
END dimensions

BEGIN perioddata
      10.00000000  1       1.20000000
END perioddata

