# File generated by Flopy version 3.10.0.dev3 on 06/15/2025 at 07:20:20.
BEGIN options
  SAVE_FLOWS
  SAVE_SPECIFIC_DISCHARGE
END options

BEGIN griddata
  icelltype
    CONSTANT  1
  k
    INTERNAL  FACTOR  1.0
    1.45190000E-04       0.00000000       0.00000000       0.00000000       0.00000000       0.00000000       0.00000000       0.00000000       0.00000000       0.00000000       0.00000000       0.00000000       0.00000000       0.00000000       0.00000000       0.00000000       0.00000000       0.00000000       0.00000000       0.00000000
    1.48720000E-04       0.00000000       0.00000000       0.00000000       0.00000000       0.00000000       0.00000000       0.00000000       0.00000000       0.00000000       0.00000000       0.00000000       0.00000000       0.00000000       0.00000000       0.00000000       0.00000000       0.00000000       0.00000000       0.00000000
    1.41160000E-04  1.59080000E-04       0.00000000       0.00000000       0.00000000       0.00000000       0.00000000       0.00000000       0.00000000       0.00000000       0.00000000       0.00000000       0.00000000       0.00000000       0.00000000       0.00000000       0.00000000       0.00000000       0.00000000       0.00000000
    1.07460000E-04  9.37620000E-05       0.00000000       0.00000000       0.00000000       0.00000000       0.00000000       0.00000000       0.00000000       0.00000000       0.00000000       0.00000000       0.00000000       0.00000000       0.00000000       0.00000000       0.00000000       0.00000000       0.00000000       0.00000000
    1.08010000E-04  9.59250000E-05  1.11010000E-04       0.00000000       0.00000000       0.00000000       0.00000000       0.00000000       0.00000000       0.00000000       0.00000000       0.00000000       0.00000000       0.00000000       0.00000000       0.00000000       0.00000000       0.00000000       0.00000000       0.00000000
    1.10540000E-04  8.30950000E-05  9.85260000E-05       0.00000000       0.00000000       0.00000000       0.00000000       0.00000000       0.00000000       0.00000000       0.00000000       0.00000000       0.00000000       0.00000000       0.00000000       0.00000000       0.00000000       0.00000000       0.00000000       0.00000000
    1.12990000E-04  9.22860000E-05  9.28510000E-05  8.16560000E-05       0.00000000       0.00000000       0.00000000       0.00000000       0.00000000       0.00000000       0.00000000       0.00000000       0.00000000       0.00000000       0.00000000       0.00000000       0.00000000       0.00000000       0.00000000       0.00000000
    1.09040000E-04  8.99340000E-05  9.42320000E-05  1.13610000E-04       0.00000000       0.00000000       0.00000000       0.00000000       0.00000000       0.00000000       0.00000000       0.00000000       0.00000000       0.00000000       0.00000000       0.00000000       0.00000000       0.00000000       0.00000000       0.00000000
    1.18250000E-04  8.36020000E-05  8.83910000E-05  1.17900000E-04       0.00000000       0.00000000       0.00000000       0.00000000       0.00000000       0.00000000       0.00000000       0.00000000       0.00000000       0.00000000       0.00000000       0.00000000       0.00000000       0.00000000       0.00000000       0.00000000
    1.07940000E-04  9.48460000E-05  9.12300000E-05  1.08240000E-04       0.00000000       0.00000000       0.00000000       0.00000000       0.00000000       0.00000000       0.00000000       0.00000000       0.00000000       0.00000000       0.00000000       0.00000000       0.00000000       0.00000000       0.00000000       0.00000000
    1.16820000E-04  8.43250000E-05  8.42380000E-05  1.01430000E-04       0.00000000       0.00000000       0.00000000       0.00000000       0.00000000       0.00000000       0.00000000       0.00000000       0.00000000       0.00000000       0.00000000       0.00000000       0.00000000       0.00000000       0.00000000       0.00000000
    1.17200000E-04  9.55220000E-05  8.87070000E-05  1.00900000E-04       0.00000000       0.00000000       0.00000000       0.00000000       0.00000000       0.00000000       0.00000000       0.00000000       0.00000000       0.00000000       0.00000000       0.00000000       0.00000000       0.00000000       0.00000000       0.00000000
    1.07110000E-04  9.67560000E-05  8.61630000E-05  1.07250000E-04       0.00000000       0.00000000       0.00000000       0.00000000       0.00000000       0.00000000       0.00000000       0.00000000       0.00000000       0.00000000       0.00000000       0.00000000       0.00000000       0.00000000       0.00000000       0.00000000
    1.08500000E-04  8.77520000E-05  8.13620000E-05  1.18200000E-04       0.00000000       0.00000000       0.00000000       0.00000000       0.00000000       0.00000000       0.00000000       0.00000000       0.00000000       0.00000000       0.00000000       0.00000000       0.00000000       0.00000000       0.00000000       0.00000000
    1.10110000E-04  8.58070000E-05  8.71680000E-05  1.20590000E-04       0.00000000       0.00000000       0.00000000       0.00000000       0.00000000       0.00000000       0.00000000       0.00000000       0.00000000       0.00000000       0.00000000       0.00000000       0.00000000       0.00000000       0.00000000       0.00000000
    1.03360000E-04  9.19250000E-05  9.24680000E-05  1.05280000E-04       0.00000000       0.00000000       0.00000000       0.00000000       0.00000000       0.00000000       0.00000000       0.00000000       0.00000000       0.00000000       0.00000000       0.00000000       0.00000000       0.00000000       0.00000000       0.00000000
    1.15380000E-04  9.15260000E-05  9.16570000E-05  1.12290000E-04       0.00000000       0.00000000       0.00000000       0.00000000  8.05910000E-05       0.00000000       0.00000000       0.00000000       0.00000000       0.00000000       0.00000000       0.00000000       0.00000000       0.00000000       0.00000000       0.00000000
    1.08900000E-04  8.38320000E-05  9.52910000E-05  1.03010000E-04       0.00000000       0.00000000       0.00000000       0.00000000  8.25490000E-05       0.00000000       0.00000000       0.00000000       0.00000000       0.00000000       0.00000000       0.00000000       0.00000000       0.00000000       0.00000000       0.00000000
    1.09160000E-04  9.29710000E-05  9.47290000E-05  1.03870000E-04       0.00000000       0.00000000       0.00000000       0.00000000  8.15930000E-05  6.48890000E-05       0.00000000       0.00000000       0.00000000       0.00000000       0.00000000       0.00000000       0.00000000       0.00000000       0.00000000       0.00000000
    1.09710000E-04  9.21560000E-05  8.37830000E-05  1.11440000E-04       0.00000000       0.00000000       0.00000000       0.00000000  9.78460000E-05  7.42180000E-05       0.00000000       0.00000000       0.00000000       0.00000000       0.00000000       0.00000000       0.00000000       0.00000000       0.00000000       0.00000000
    1.15630000E-04  8.42800000E-05  9.13340000E-05  1.22050000E-04       0.00000000       0.00000000       0.00000000       0.00000000  8.97100000E-05  6.95350000E-05  4.99780000E-05       0.00000000       0.00000000       0.00000000       0.00000000       0.00000000       0.00000000       0.00000000       0.00000000       0.00000000
    1.10670000E-04  9.07790000E-05  9.63270000E-05  1.16470000E-04       0.00000000       0.00000000  1.13130000E-04  1.10420000E-04  8.90890000E-05  7.11020000E-05  5.12400000E-05       0.00000000       0.00000000       0.00000000       0.00000000       0.00000000       0.00000000       0.00000000       0.00000000       0.00000000
    1.06380000E-04  9.11230000E-05  8.28150000E-05  1.14940000E-04  1.09090000E-04       0.00000000  1.13410000E-04  8.39290000E-05  8.63670000E-05  6.73360000E-05  4.77950000E-05  4.51990000E-05       0.00000000       0.00000000       0.00000000       0.00000000       0.00000000       0.00000000       0.00000000       0.00000000
    1.13540000E-04  9.53610000E-05  8.72870000E-05  8.83950000E-05  1.02780000E-04  1.10000000E-04  9.73760000E-05  8.47170000E-05  9.91710000E-05  7.21170000E-05  5.06510000E-05  5.25200000E-05       0.00000000       0.00000000       0.00000000       0.00000000       0.00000000       0.00000000       0.00000000       0.00000000
    1.13240000E-04  9.20680000E-05  9.16960000E-05  9.26430000E-05  9.18470000E-05  9.09220000E-05  8.91630000E-05  8.31420000E-05  6.51720000E-05  7.73340000E-05  5.26800000E-05  5.14230000E-05  4.15630000E-05       0.00000000       0.00000000       0.00000000       0.00000000       0.00000000       0.00000000       0.00000000
    1.14220000E-04  9.12480000E-05  9.59190000E-05  6.73560000E-05  9.11770000E-05  8.45140000E-05  8.92310000E-05  9.49620000E-05  6.94860000E-05  7.00170000E-05  4.81270000E-05  4.94740000E-05  4.76010000E-05       0.00000000       0.00000000       0.00000000       0.00000000       0.00000000       0.00000000       0.00000000
    1.17500000E-04  8.37890000E-05  9.90900000E-05  9.16670000E-05  6.63950000E-05  8.74520000E-05  8.99070000E-05  6.50690000E-05  6.87460000E-05  5.21960000E-05  1.71880000E-05  5.35470000E-05  4.61300000E-05  4.90500000E-05       0.00000000       0.00000000       0.00000000       0.00000000       0.00000000       0.00000000
    1.01210000E-04  1.07490000E-04  8.38650000E-05  8.87320000E-05  9.23180000E-05  8.30380000E-05  6.10680000E-05  5.47710000E-05  6.89630000E-05  3.94930000E-05  3.99710000E-05  4.88270000E-05  5.05890000E-05  4.68330000E-05       0.00000000       0.00000000       0.00000000       0.00000000       0.00000000       0.00000000
    1.04790000E-04  1.10480000E-04  9.09290000E-05  9.04380000E-05  9.66870000E-05  7.35440000E-05  5.65580000E-05  1.32910000E-05  6.95690000E-05  6.10970000E-05  3.25180000E-05  5.44270000E-05  5.22430000E-05  4.28810000E-05  5.42750000E-05       0.00000000       0.00000000       0.00000000       0.00000000       0.00000000
    1.02310000E-04  1.16650000E-04  9.74140000E-05  9.78180000E-05  9.99050000E-05  7.61180000E-05  1.59030000E-05  1.86320000E-05  1.56050000E-05  3.31120000E-05  2.49200000E-05  4.98260000E-05  5.44710000E-05  4.70160000E-05  5.07890000E-05       0.00000000       0.00000000       0.00000000       0.00000000       0.00000000
    1.10810000E-04  8.52520000E-05  8.51590000E-05  9.21730000E-05  7.25640000E-05  3.92140000E-05  2.95880000E-05  1.96790000E-05  3.28710000E-05  2.47270000E-05  3.12760000E-05  4.83330000E-05  5.49990000E-05  5.00090000E-05  3.33520000E-05  1.61980000E-05       0.00000000       0.00000000       0.00000000       0.00000000
    1.09270000E-04  8.62210000E-05  8.70460000E-05  9.06130000E-05  9.61670000E-05  6.62960000E-05  8.71050000E-06  2.77100000E-05  2.86920000E-05  3.57900000E-05  2.66520000E-05  3.39060000E-05  5.48190000E-05  5.34270000E-05  1.83680000E-05  1.85810000E-05       0.00000000       0.00000000       0.00000000       0.00000000
         0.00000000  9.11680000E-05  8.83110000E-05  8.96620000E-05  8.81880000E-05  8.59930000E-05  6.89580000E-05  4.77570000E-05  4.01550000E-06  2.65350000E-05  2.46150000E-05  2.00880000E-05  1.84640000E-05  5.99780000E-05  5.03220000E-05  4.51900000E-05  2.58050000E-05       0.00000000       0.00000000       0.00000000
         0.00000000       0.00000000  8.14200000E-05  8.95370000E-05  9.76290000E-05  6.55510000E-05  7.12940000E-05  5.27220000E-05  3.93880000E-05  3.81610000E-05  2.49060000E-05  2.53670000E-05  1.77400000E-05  5.11890000E-05  4.38410000E-05  5.09000000E-05  4.25750000E-05       0.00000000       0.00000000       0.00000000
         0.00000000       0.00000000       0.00000000  6.61830000E-05  7.64460000E-05  6.46440000E-05  6.09720000E-05  7.73920000E-05  4.01530000E-05  2.63030000E-05  2.22060000E-05  1.43760000E-05  3.88170000E-05  4.57840000E-05  4.89040000E-05  5.39540000E-05  4.95590000E-05  4.64160000E-05       0.00000000       0.00000000
         0.00000000       0.00000000       0.00000000       0.00000000  7.44870000E-05  7.41670000E-05  7.12720000E-05  5.23670000E-05  4.88570000E-05  1.58870000E-05  2.54590000E-05  2.11320000E-05  2.69190000E-05  5.37460000E-05  4.96820000E-05  4.68210000E-05  4.71210000E-05  6.67390000E-05       0.00000000       0.00000000
         0.00000000       0.00000000       0.00000000       0.00000000  8.72030000E-05  7.17440000E-05  6.47370000E-05  5.41360000E-05  5.13600000E-05  2.58840000E-05  2.62770000E-05  2.96990000E-05  2.03310000E-05  5.16530000E-05  4.09410000E-05  5.09520000E-05  7.43370000E-05  7.11200000E-05  8.80500000E-05       0.00000000
         0.00000000       0.00000000       0.00000000       0.00000000       0.00000000  7.44330000E-05  6.89800000E-05  4.78150000E-05  6.21810000E-05  1.59060000E-05  2.03910000E-05  2.71830000E-05  1.72660000E-05  2.08320000E-05  2.85460000E-05  5.45380000E-05  5.07470000E-05  6.30920000E-05       0.00000000       0.00000000
         0.00000000       0.00000000       0.00000000       0.00000000       0.00000000  6.87940000E-05  7.87530000E-05  6.53410000E-05  5.25810000E-05  2.33150000E-05  2.43920000E-05  2.92500000E-05  2.75250000E-05  1.79680000E-05  3.26610000E-05  4.24360000E-05  6.34250000E-05       0.00000000       0.00000000       0.00000000
         0.00000000       0.00000000       0.00000000       0.00000000       0.00000000  9.47510000E-05  5.31510000E-05  5.10870000E-05  2.63900000E-05  2.86250000E-05  2.38860000E-05  1.61000000E-05  1.78950000E-05  1.51880000E-05  4.61630000E-05       0.00000000       0.00000000       0.00000000       0.00000000       0.00000000
END griddata

