# File generated by Flopy version 3.10.0.dev3 on 06/15/2025 at 07:20:20.
BEGIN options
  BUDGET  FILEOUT  freyberg_1.cbc
  HEAD  FILEOUT  freyberg_1.hds
END options

BEGIN period  1
  SAVE  head  all
  SAVE  budget  all
  PRINT  budget  all
END period  1

