# File generated by Flopy version 3.10.0.dev3 on 06/13/2025 at 10:04:03.
BEGIN options
END options

BEGIN timing
  TDIS6  freyberg.tdis
END timing

BEGIN models
  gwf6  freyberg_1.nam  freyberg_1
  gwf6  freyberg_2.nam  freyberg_2
END models

BEGIN exchanges
  GWF6-GWF6  sim_freyberg_1_freyberg_2.gwfgwf  freyberg_1  freyberg_2
END exchanges

BEGIN solutiongroup  1
  ims6  freyberg.ims  freyberg_1  freyberg_2
END solutiongroup  1

