# File generated by Flopy version 3.9.1 on 02/24/2025 at 15:11:39.
BEGIN options
END options

BEGIN timing
  TDIS6  tut_mf6_03.tdis
END timing

BEGIN models
  gwf6  tut_mf6_03.nam  tut_mf6_03
END models

BEGIN exchanges
END exchanges

BEGIN solutiongroup  1
  ims6  tut_mf6_03.ims  tut_mf6_03
END solutiongroup  1

