# File generated by Flopy version 3.9.1 on 02/24/2025 at 15:11:39.
BEGIN options
END options

BEGIN griddata
  strt
    CONSTANT      50.00000000
END griddata

