# File generated by Flopy version 3.9.1 on 02/24/2025 at 15:09:40.
BEGIN options
END options

BEGIN packages
  DIS6  tutorial03_mf6_data.dis  dis
  IC6  tutorial03_mf6_data.ic  ic
  NPF6  tutorial03_mf6_data.npf  npf
  GHB6  tutorial03_mf6_data.ghb  ghb
END packages

