# File generated by Flopy version 3.8.2 on 06/20/2025 at 16:25:50.
BEGIN options
  TIME_UNITS  days
END options

BEGIN dimensions
  NPER  1
END dimensions

BEGIN perioddata
    1000.00000000  100       1.05000000
END perioddata

