MODPATH_TIMESERIES_FILE         7         2
    1   0.0000000000E+00  0.0000000000E+00  0.0000000000E+00  0.0000000000E+00
END HEADER
       0       1  0.0000000000E+00         1    1      1001         3  0.5000000000E+00  0.5000000000E+00  0.5000000000E+00  0.2500000000E+03  0.1150000000E+04 -0.5000000000E+02         1
       0       1  0.0000000000E+00         2    1      1002        54  0.5000000000E+00  0.5000000000E+00  0.5000000000E+00  0.2500000000E+03  0.1050000000E+04 -0.5000000000E+02         1
       0       1  0.0000000000E+00         3    1      1003       105  0.5000000000E+00  0.5000000000E+00  0.5000000000E+00  0.2500000000E+03  0.9500000000E+03 -0.5000000000E+02         1
       0       1  0.0000000000E+00         4    1      1004       156  0.5000000000E+00  0.5000000000E+00  0.5000000000E+00  0.2500000000E+03  0.8500000000E+03 -0.5000000000E+02         1
       0       1  0.0000000000E+00         5    1      1005       870  0.5000000000E+00  0.5000000000E+00  0.5000000000E+00  0.2500000000E+03  0.6500000000E+03 -0.1500000000E+03         2
       0       1  0.0000000000E+00         6    1      1006       921  0.5000000000E+00  0.5000000000E+00  0.5000000000E+00  0.2500000000E+03  0.5500000000E+03 -0.1500000000E+03         2
       0       1  0.0000000000E+00         7    1      1007       972  0.5000000000E+00  0.5000000000E+00  0.5000000000E+00  0.2500000000E+03  0.4500000000E+03 -0.1500000000E+03         2
       0       1  0.0000000000E+00         8    1      1008      1023  0.5000000000E+00  0.5000000000E+00  0.5000000000E+00  0.2500000000E+03  0.3500000000E+03 -0.1500000000E+03         2
       1       1  0.1000000000E-01         1    1      1001         3  0.5000000007E+00  0.5000000001E+00  0.4999999999E+00  0.2500000001E+03  0.1150000000E+04 -0.5000000001E+02         1
       1       1  0.1000000000E-01         2    1      1002        54  0.5000000007E+00  0.5000000003E+00  0.4999999999E+00  0.2500000001E+03  0.1050000000E+04 -0.5000000001E+02         1
       1       1  0.1000000000E-01         3    1      1003       105  0.5000000009E+00  0.5000000005E+00  0.4999999999E+00  0.2500000001E+03  0.9500000001E+03 -0.5000000001E+02         1
       1       1  0.1000000000E-01         4    1      1004       156  0.5000000009E+00  0.5000000006E+00  0.4999999999E+00  0.2500000001E+03  0.8500000001E+03 -0.5000000001E+02         1
       1       1  0.1000000000E-01         5    1      1005       870  0.5000000011E+00  0.5000000008E+00  0.5000000000E+00  0.2500000001E+03  0.6500000001E+03 -0.1500000000E+03         2
       1       1  0.1000000000E-01         6    1      1006       921  0.5000000011E+00  0.5000000008E+00  0.5000000000E+00  0.2500000001E+03  0.5500000001E+03 -0.1500000000E+03         2
       1       1  0.1000000000E-01         7    1      1007       972  0.5000000011E+00  0.5000000008E+00  0.5000000001E+00  0.2500000001E+03  0.4500000001E+03 -0.1500000000E+03         2
       1       1  0.1000000000E-01         8    1      1008      1023  0.5000000011E+00  0.5000000008E+00  0.5000000001E+00  0.2500000001E+03  0.3500000001E+03 -0.1500000000E+03         2
       2       1  0.2000000000E-01         1    1      1001         3  0.5000000014E+00  0.5000000002E+00  0.4999999997E+00  0.2500000001E+03  0.1150000000E+04 -0.5000000003E+02         1
       2       1  0.2000000000E-01         2    1      1002        54  0.5000000015E+00  0.5000000007E+00  0.4999999998E+00  0.2500000001E+03  0.1050000000E+04 -0.5000000002E+02         1
       2       1  0.2000000000E-01         3    1      1003       105  0.5000000017E+00  0.5000000010E+00  0.4999999998E+00  0.2500000002E+03  0.9500000001E+03 -0.5000000002E+02         1
       2       1  0.2000000000E-01         4    1      1004       156  0.5000000019E+00  0.5000000013E+00  0.4999999999E+00  0.2500000002E+03  0.8500000001E+03 -0.5000000001E+02         1
       2       1  0.2000000000E-01         5    1      1005       870  0.5000000021E+00  0.5000000016E+00  0.4999999999E+00  0.2500000002E+03  0.6500000002E+03 -0.1500000000E+03         2
       2       1  0.2000000000E-01         6    1      1006       921  0.5000000022E+00  0.5000000017E+00  0.5000000000E+00  0.2500000002E+03  0.5500000002E+03 -0.1500000000E+03         2
       2       1  0.2000000000E-01         7    1      1007       972  0.5000000022E+00  0.5000000017E+00  0.5000000001E+00  0.2500000002E+03  0.4500000002E+03 -0.1500000000E+03         2
       2       1  0.2000000000E-01         8    1      1008      1023  0.5000000021E+00  0.5000000016E+00  0.5000000002E+00  0.2500000002E+03  0.3500000002E+03 -0.1500000000E+03         2
       3       1  0.3000000000E-01         1    1      1001         3  0.5000000022E+00  0.5000000004E+00  0.4999999996E+00  0.2500000002E+03  0.1150000000E+04 -0.5000000004E+02         1
       3       1  0.3000000000E-01         2    1      1002        54  0.5000000022E+00  0.5000000010E+00  0.4999999997E+00  0.2500000002E+03  0.1050000000E+04 -0.5000000003E+02         1
       3       1  0.3000000000E-01         3    1      1003       105  0.5000000026E+00  0.5000000016E+00  0.4999999998E+00  0.2500000003E+03  0.9500000002E+03 -0.5000000002E+02         1
       3       1  0.3000000000E-01         4    1      1004       156  0.5000000028E+00  0.5000000019E+00  0.4999999998E+00  0.2500000003E+03  0.8500000002E+03 -0.5000000002E+02         1
       3       1  0.3000000000E-01         5    1      1005       870  0.5000000032E+00  0.5000000024E+00  0.4999999999E+00  0.2500000003E+03  0.6500000002E+03 -0.1500000000E+03         2
       3       1  0.3000000000E-01         6    1      1006       921  0.5000000032E+00  0.5000000025E+00  0.5000000000E+00  0.2500000003E+03  0.5500000003E+03 -0.1500000000E+03         2
       3       1  0.3000000000E-01         7    1      1007       972  0.5000000033E+00  0.5000000025E+00  0.5000000002E+00  0.2500000003E+03  0.4500000003E+03 -0.1500000000E+03         2
       3       1  0.3000000000E-01         8    1      1008      1023  0.5000000032E+00  0.5000000024E+00  0.5000000004E+00  0.2500000003E+03  0.3500000002E+03 -0.1500000000E+03         2
       4       1  0.4000000000E-01         1    1      1001         3  0.5000000029E+00  0.5000000005E+00  0.4999999994E+00  0.2500000003E+03  0.1150000000E+04 -0.5000000006E+02         1
       4       1  0.4000000000E-01         2    1      1002        54  0.5000000030E+00  0.5000000014E+00  0.4999999995E+00  0.2500000003E+03  0.1050000000E+04 -0.5000000005E+02         1
       4       1  0.4000000000E-01         3    1      1003       105  0.5000000034E+00  0.5000000021E+00  0.4999999997E+00  0.2500000003E+03  0.9500000002E+03 -0.5000000003E+02         1
       4       1  0.4000000000E-01         4    1      1004       156  0.5000000038E+00  0.5000000026E+00  0.4999999998E+00  0.2500000004E+03  0.8500000003E+03 -0.5000000002E+02         1
       4       1  0.4000000000E-01         5    1      1005       870  0.5000000042E+00  0.5000000033E+00  0.4999999999E+00  0.2500000004E+03  0.6500000003E+03 -0.1500000000E+03         2
       4       1  0.4000000000E-01         6    1      1006       921  0.5000000043E+00  0.5000000034E+00  0.5000000000E+00  0.2500000004E+03  0.5500000003E+03 -0.1500000000E+03         2
       4       1  0.4000000000E-01         7    1      1007       972  0.5000000043E+00  0.5000000034E+00  0.5000000002E+00  0.2500000004E+03  0.4500000003E+03 -0.1500000000E+03         2
       4       1  0.4000000000E-01         8    1      1008      1023  0.5000000042E+00  0.5000000032E+00  0.5000000005E+00  0.2500000004E+03  0.3500000003E+03 -0.1500000000E+03         2
       5       1  0.5000000000E-01         1    1      1001         3  0.5000000036E+00  0.5000000006E+00  0.4999999993E+00  0.2500000004E+03  0.1150000000E+04 -0.5000000007E+02         1
       5       1  0.5000000000E-01         2    1      1002        54  0.5000000037E+00  0.5000000017E+00  0.4999999994E+00  0.2500000004E+03  0.1050000000E+04 -0.5000000006E+02         1
       5       1  0.5000000000E-01         3    1      1003       105  0.5000000043E+00  0.5000000026E+00  0.4999999996E+00  0.2500000004E+03  0.9500000003E+03 -0.5000000004E+02         1
       5       1  0.5000000000E-01         4    1      1004       156  0.5000000047E+00  0.5000000032E+00  0.4999999997E+00  0.2500000005E+03  0.8500000003E+03 -0.5000000003E+02         1
       5       1  0.5000000000E-01         5    1      1005       870  0.5000000053E+00  0.5000000041E+00  0.4999999998E+00  0.2500000005E+03  0.6500000004E+03 -0.1500000000E+03         2
       5       1  0.5000000000E-01         6    1      1006       921  0.5000000054E+00  0.5000000042E+00  0.5000000001E+00  0.2500000005E+03  0.5500000004E+03 -0.1500000000E+03         2
       5       1  0.5000000000E-01         7    1      1007       972  0.5000000054E+00  0.5000000042E+00  0.5000000003E+00  0.2500000005E+03  0.4500000004E+03 -0.1500000000E+03         2
       5       1  0.5000000000E-01         8    1      1008      1023  0.5000000053E+00  0.5000000039E+00  0.5000000006E+00  0.2500000005E+03  0.3500000004E+03 -0.1499999999E+03         2
       6       1  0.6000000000E-01         1    1      1001         3  0.5000000043E+00  0.5000000007E+00  0.4999999991E+00  0.2500000004E+03  0.1150000000E+04 -0.5000000009E+02         1
       6       1  0.6000000000E-01         2    1      1002        54  0.5000000044E+00  0.5000000021E+00  0.4999999993E+00  0.2500000004E+03  0.1050000000E+04 -0.5000000007E+02         1
       6       1  0.6000000000E-01         3    1      1003       105  0.5000000051E+00  0.5000000031E+00  0.4999999995E+00  0.2500000005E+03  0.9500000003E+03 -0.5000000005E+02         1
       6       1  0.6000000000E-01         4    1      1004       156  0.5000000056E+00  0.5000000039E+00  0.4999999997E+00  0.2500000006E+03  0.8500000004E+03 -0.5000000003E+02         1
       6       1  0.6000000000E-01         5    1      1005       870  0.5000000063E+00  0.5000000049E+00  0.4999999998E+00  0.2500000006E+03  0.6500000005E+03 -0.1500000000E+03         2
       6       1  0.6000000000E-01         6    1      1006       921  0.5000000065E+00  0.5000000051E+00  0.5000000001E+00  0.2500000006E+03  0.5500000005E+03 -0.1500000000E+03         2
       6       1  0.6000000000E-01         7    1      1007       972  0.5000000065E+00  0.5000000050E+00  0.5000000004E+00  0.2500000007E+03  0.4500000005E+03 -0.1500000000E+03         2
       6       1  0.6000000000E-01         8    1      1008      1023  0.5000000064E+00  0.5000000047E+00  0.5000000007E+00  0.2500000006E+03  0.3500000005E+03 -0.1499999999E+03         2
       7       1  0.7000000000E-01         1    1      1001         3  0.5000000050E+00  0.5000000009E+00  0.4999999990E+00  0.2500000005E+03  0.1150000000E+04 -0.5000000010E+02         1
       7       1  0.7000000000E-01         2    1      1002        54  0.5000000052E+00  0.5000000024E+00  0.4999999992E+00  0.2500000005E+03  0.1050000000E+04 -0.5000000008E+02         1
       7       1  0.7000000000E-01         3    1      1003       105  0.5000000060E+00  0.5000000036E+00  0.4999999994E+00  0.2500000006E+03  0.9500000004E+03 -0.5000000006E+02         1
       7       1  0.7000000000E-01         4    1      1004       156  0.5000000066E+00  0.5000000045E+00  0.4999999996E+00  0.2500000007E+03  0.8500000005E+03 -0.5000000004E+02         1
       7       1  0.7000000000E-01         5    1      1005       870  0.5000000074E+00  0.5000000057E+00  0.4999999998E+00  0.2500000007E+03  0.6500000006E+03 -0.1500000000E+03         2
       7       1  0.7000000000E-01         6    1      1006       921  0.5000000076E+00  0.5000000059E+00  0.5000000001E+00  0.2500000008E+03  0.5500000006E+03 -0.1500000000E+03         2
       7       1  0.7000000000E-01         7    1      1007       972  0.5000000076E+00  0.5000000059E+00  0.5000000004E+00  0.2500000008E+03  0.4500000006E+03 -0.1500000000E+03         2
       7       1  0.7000000000E-01         8    1      1008      1023  0.5000000074E+00  0.5000000055E+00  0.5000000009E+00  0.2500000007E+03  0.3500000006E+03 -0.1499999999E+03         2
       8       1  0.8000000000E-01         1    1      1001         3  0.5000000058E+00  0.5000000010E+00  0.4999999988E+00  0.2500000006E+03  0.1150000000E+04 -0.5000000012E+02         1
       8       1  0.8000000000E-01         2    1      1002        54  0.5000000059E+00  0.5000000028E+00  0.4999999991E+00  0.2500000006E+03  0.1050000000E+04 -0.5000000009E+02         1
       8       1  0.8000000000E-01         3    1      1003       105  0.5000000068E+00  0.5000000042E+00  0.4999999994E+00  0.2500000007E+03  0.9500000004E+03 -0.5000000006E+02         1
       8       1  0.8000000000E-01         4    1      1004       156  0.5000000075E+00  0.5000000052E+00  0.4999999996E+00  0.2500000008E+03  0.8500000005E+03 -0.5000000004E+02         1
       8       1  0.8000000000E-01         5    1      1005       870  0.5000000084E+00  0.5000000065E+00  0.4999999997E+00  0.2500000008E+03  0.6500000007E+03 -0.1500000000E+03         2
       8       1  0.8000000000E-01         6    1      1006       921  0.5000000086E+00  0.5000000068E+00  0.5000000001E+00  0.2500000009E+03  0.5500000007E+03 -0.1500000000E+03         2
       8       1  0.8000000000E-01         7    1      1007       972  0.5000000087E+00  0.5000000067E+00  0.5000000005E+00  0.2500000009E+03  0.4500000007E+03 -0.1500000000E+03         2
       8       1  0.8000000000E-01         8    1      1008      1023  0.5000000085E+00  0.5000000063E+00  0.5000000010E+00  0.2500000008E+03  0.3500000006E+03 -0.1499999999E+03         2
       9       1  0.9000000000E-01         1    1      1001         3  0.5000000065E+00  0.5000000011E+00  0.4999999987E+00  0.2500000006E+03  0.1150000000E+04 -0.5000000013E+02         1
       9       1  0.9000000000E-01         2    1      1002        54  0.5000000067E+00  0.5000000031E+00  0.4999999990E+00  0.2500000007E+03  0.1050000000E+04 -0.5000000010E+02         1
       9       1  0.9000000000E-01         3    1      1003       105  0.5000000077E+00  0.5000000047E+00  0.4999999993E+00  0.2500000008E+03  0.9500000005E+03 -0.5000000007E+02         1
       9       1  0.9000000000E-01         4    1      1004       156  0.5000000085E+00  0.5000000058E+00  0.4999999995E+00  0.2500000008E+03  0.8500000006E+03 -0.5000000005E+02         1
       9       1  0.9000000000E-01         5    1      1005       870  0.5000000095E+00  0.5000000073E+00  0.4999999997E+00  0.2500000009E+03  0.6500000007E+03 -0.1500000000E+03         2
       9       1  0.9000000000E-01         6    1      1006       921  0.5000000097E+00  0.5000000076E+00  0.5000000001E+00  0.2500000010E+03  0.5500000008E+03 -0.1500000000E+03         2
       9       1  0.9000000000E-01         7    1      1007       972  0.5000000098E+00  0.5000000076E+00  0.5000000005E+00  0.2500000010E+03  0.4500000008E+03 -0.1499999999E+03         2
       9       1  0.9000000000E-01         8    1      1008      1023  0.5000000095E+00  0.5000000071E+00  0.5000000011E+00  0.2500000010E+03  0.3500000007E+03 -0.1499999999E+03         2
      10       1  0.1000000000E+00         1    1      1001         3  0.5000000072E+00  0.5000000012E+00  0.4999999985E+00  0.2500000007E+03  0.1150000000E+04 -0.5000000015E+02         1
      10       1  0.1000000000E+00         2    1      1002        54  0.5000000074E+00  0.5000000034E+00  0.4999999988E+00  0.2500000007E+03  0.1050000000E+04 -0.5000000012E+02         1
      10       1  0.1000000000E+00         3    1      1003       105  0.5000000086E+00  0.5000000052E+00  0.4999999992E+00  0.2500000009E+03  0.9500000005E+03 -0.5000000008E+02         1
      10       1  0.1000000000E+00         4    1      1004       156  0.5000000094E+00  0.5000000065E+00  0.4999999995E+00  0.2500000009E+03  0.8500000006E+03 -0.5000000005E+02         1
      10       1  0.1000000000E+00         5    1      1005       870  0.5000000106E+00  0.5000000082E+00  0.4999999997E+00  0.2500000011E+03  0.6500000008E+03 -0.1500000000E+03         2
      10       1  0.1000000000E+00         6    1      1006       921  0.5000000108E+00  0.5000000084E+00  0.5000000001E+00  0.2500000011E+03  0.5500000008E+03 -0.1500000000E+03         2
      10       1  0.1000000000E+00         7    1      1007       972  0.5000000109E+00  0.5000000084E+00  0.5000000006E+00  0.2500000011E+03  0.4500000008E+03 -0.1499999999E+03         2
      10       1  0.1000000000E+00         8    1      1008      1023  0.5000000106E+00  0.5000000079E+00  0.5000000012E+00  0.2500000011E+03  0.3500000008E+03 -0.1499999999E+03         2
      11       1  0.1100000000E+00         1    1      1001         3  0.5000000079E+00  0.5000000013E+00  0.4999999984E+00  0.2500000008E+03  0.1150000000E+04 -0.5000000016E+02         1
      11       1  0.1100000000E+00         2    1      1002        54  0.5000000081E+00  0.5000000038E+00  0.4999999987E+00  0.2500000008E+03  0.1050000000E+04 -0.5000000013E+02         1
      11       1  0.1100000000E+00         3    1      1003       105  0.5000000094E+00  0.5000000057E+00  0.4999999991E+00  0.2500000009E+03  0.9500000006E+03 -0.5000000009E+02         1
      11       1  0.1100000000E+00         4    1      1004       156  0.5000000103E+00  0.5000000071E+00  0.4999999994E+00  0.2500000010E+03  0.8500000007E+03 -0.5000000006E+02         1
      11       1  0.1100000000E+00         5    1      1005       870  0.5000000116E+00  0.5000000090E+00  0.4999999997E+00  0.2500000012E+03  0.6500000009E+03 -0.1500000000E+03         2
      11       1  0.1100000000E+00         6    1      1006       921  0.5000000119E+00  0.5000000093E+00  0.5000000001E+00  0.2500000012E+03  0.5500000009E+03 -0.1500000000E+03         2
      11       1  0.1100000000E+00         7    1      1007       972  0.5000000119E+00  0.5000000092E+00  0.5000000007E+00  0.2500000012E+03  0.4500000009E+03 -0.1499999999E+03         2
      11       1  0.1100000000E+00         8    1      1008      1023  0.5000000117E+00  0.5000000087E+00  0.5000000014E+00  0.2500000012E+03  0.3500000009E+03 -0.1499999999E+03         2
      12       1  0.1200000000E+00         1    1      1001         3  0.5000000086E+00  0.5000000015E+00  0.4999999982E+00  0.2500000009E+03  0.1150000000E+04 -0.5000000018E+02         1
      12       1  0.1200000000E+00         2    1      1002        54  0.5000000089E+00  0.5000000041E+00  0.4999999986E+00  0.2500000009E+03  0.1050000000E+04 -0.5000000014E+02         1
      12       1  0.1200000000E+00         3    1      1003       105  0.5000000103E+00  0.5000000062E+00  0.4999999990E+00  0.2500000010E+03  0.9500000006E+03 -0.5000000010E+02         1
      12       1  0.1200000000E+00         4    1      1004       156  0.5000000113E+00  0.5000000078E+00  0.4999999994E+00  0.2500000011E+03  0.8500000008E+03 -0.5000000006E+02         1
      12       1  0.1200000000E+00         5    1      1005       870  0.5000000127E+00  0.5000000098E+00  0.4999999996E+00  0.2500000013E+03  0.6500000010E+03 -0.1500000000E+03         2
      12       1  0.1200000000E+00         6    1      1006       921  0.5000000130E+00  0.5000000101E+00  0.5000000001E+00  0.2500000013E+03  0.5500000010E+03 -0.1500000000E+03         2
      12       1  0.1200000000E+00         7    1      1007       972  0.5000000130E+00  0.5000000101E+00  0.5000000007E+00  0.2500000013E+03  0.4500000010E+03 -0.1499999999E+03         2
      12       1  0.1200000000E+00         8    1      1008      1023  0.5000000127E+00  0.5000000095E+00  0.5000000015E+00  0.2500000013E+03  0.3500000009E+03 -0.1499999999E+03         2
      13       1  0.1300000000E+00         1    1      1001         3  0.5000000093E+00  0.5000000016E+00  0.4999999981E+00  0.2500000009E+03  0.1150000000E+04 -0.5000000019E+02         1
      13       1  0.1300000000E+00         2    1      1002        54  0.5000000096E+00  0.5000000045E+00  0.4999999985E+00  0.2500000010E+03  0.1050000000E+04 -0.5000000015E+02         1
      13       1  0.1300000000E+00         3    1      1003       105  0.5000000111E+00  0.5000000068E+00  0.4999999989E+00  0.2500000011E+03  0.9500000007E+03 -0.5000000011E+02         1
      13       1  0.1300000000E+00         4    1      1004       156  0.5000000122E+00  0.5000000084E+00  0.4999999993E+00  0.2500000012E+03  0.8500000008E+03 -0.5000000007E+02         1
      13       1  0.1300000000E+00         5    1      1005       870  0.5000000137E+00  0.5000000106E+00  0.4999999996E+00  0.2500000014E+03  0.6500000011E+03 -0.1500000000E+03         2
      13       1  0.1300000000E+00         6    1      1006       921  0.5000000140E+00  0.5000000110E+00  0.5000000002E+00  0.2500000014E+03  0.5500000011E+03 -0.1500000000E+03         2
      13       1  0.1300000000E+00         7    1      1007       972  0.5000000141E+00  0.5000000109E+00  0.5000000008E+00  0.2500000014E+03  0.4500000011E+03 -0.1499999999E+03         2
      13       1  0.1300000000E+00         8    1      1008      1023  0.5000000138E+00  0.5000000102E+00  0.5000000016E+00  0.2500000014E+03  0.3500000010E+03 -0.1499999998E+03         2
      14       1  0.1400000000E+00         1    1      1001         3  0.5000000101E+00  0.5000000017E+00  0.4999999979E+00  0.2500000010E+03  0.1150000000E+04 -0.5000000021E+02         1
      14       1  0.1400000000E+00         2    1      1002        54  0.5000000104E+00  0.5000000048E+00  0.4999999984E+00  0.2500000010E+03  0.1050000000E+04 -0.5000000016E+02         1
      14       1  0.1400000000E+00         3    1      1003       105  0.5000000120E+00  0.5000000073E+00  0.4999999989E+00  0.2500000012E+03  0.9500000007E+03 -0.5000000011E+02         1
      14       1  0.1400000000E+00         4    1      1004       156  0.5000000132E+00  0.5000000091E+00  0.4999999993E+00  0.2500000013E+03  0.8500000009E+03 -0.5000000007E+02         1
      14       1  0.1400000000E+00         5    1      1005       870  0.5000000148E+00  0.5000000114E+00  0.4999999996E+00  0.2500000015E+03  0.6500000011E+03 -0.1500000000E+03         2
      14       1  0.1400000000E+00         6    1      1006       921  0.5000000151E+00  0.5000000118E+00  0.5000000002E+00  0.2500000015E+03  0.5500000012E+03 -0.1500000000E+03         2
      14       1  0.1400000000E+00         7    1      1007       972  0.5000000152E+00  0.5000000118E+00  0.5000000008E+00  0.2500000015E+03  0.4500000012E+03 -0.1499999999E+03         2
      14       1  0.1400000000E+00         8    1      1008      1023  0.5000000148E+00  0.5000000110E+00  0.5000000017E+00  0.2500000015E+03  0.3500000011E+03 -0.1499999998E+03         2
      15       1  0.1500000000E+00         1    1      1001         3  0.5000000108E+00  0.5000000018E+00  0.4999999978E+00  0.2500000011E+03  0.1150000000E+04 -0.5000000022E+02         1
      15       1  0.1500000000E+00         2    1      1002        54  0.5000000111E+00  0.5000000052E+00  0.4999999983E+00  0.2500000011E+03  0.1050000001E+04 -0.5000000017E+02         1
      15       1  0.1500000000E+00         3    1      1003       105  0.5000000128E+00  0.5000000078E+00  0.4999999988E+00  0.2500000013E+03  0.9500000008E+03 -0.5000000012E+02         1
      15       1  0.1500000000E+00         4    1      1004       156  0.5000000141E+00  0.5000000097E+00  0.4999999992E+00  0.2500000014E+03  0.8500000010E+03 -0.5000000008E+02         1
      15       1  0.1500000000E+00         5    1      1005       870  0.5000000158E+00  0.5000000122E+00  0.4999999995E+00  0.2500000016E+03  0.6500000012E+03 -0.1500000000E+03         2
      15       1  0.1500000000E+00         6    1      1006       921  0.5000000162E+00  0.5000000127E+00  0.5000000002E+00  0.2500000016E+03  0.5500000013E+03 -0.1500000000E+03         2
      15       1  0.1500000000E+00         7    1      1007       972  0.5000000163E+00  0.5000000126E+00  0.5000000009E+00  0.2500000016E+03  0.4500000013E+03 -0.1499999999E+03         2
      15       1  0.1500000000E+00         8    1      1008      1023  0.5000000159E+00  0.5000000118E+00  0.5000000019E+00  0.2500000016E+03  0.3500000012E+03 -0.1499999998E+03         2
      16       1  0.1600000000E+00         1    1      1001         3  0.5000000115E+00  0.5000000020E+00  0.4999999976E+00  0.2500000012E+03  0.1150000000E+04 -0.5000000024E+02         1
      16       1  0.1600000000E+00         2    1      1002        54  0.5000000118E+00  0.5000000055E+00  0.4999999981E+00  0.2500000012E+03  0.1050000001E+04 -0.5000000019E+02         1
      16       1  0.1600000000E+00         3    1      1003       105  0.5000000137E+00  0.5000000083E+00  0.4999999987E+00  0.2500000014E+03  0.9500000008E+03 -0.5000000013E+02         1
      16       1  0.1600000000E+00         4    1      1004       156  0.5000000150E+00  0.5000000104E+00  0.4999999992E+00  0.2500000015E+03  0.8500000010E+03 -0.5000000008E+02         1
      16       1  0.1600000000E+00         5    1      1005       870  0.5000000169E+00  0.5000000130E+00  0.4999999995E+00  0.2500000017E+03  0.6500000013E+03 -0.1500000001E+03         2
      16       1  0.1600000000E+00         6    1      1006       921  0.5000000173E+00  0.5000000135E+00  0.5000000002E+00  0.2500000017E+03  0.5500000014E+03 -0.1500000000E+03         2
      16       1  0.1600000000E+00         7    1      1007       972  0.5000000174E+00  0.5000000134E+00  0.5000000010E+00  0.2500000017E+03  0.4500000013E+03 -0.1499999999E+03         2
      16       1  0.1600000000E+00         8    1      1008      1023  0.5000000169E+00  0.5000000126E+00  0.5000000020E+00  0.2500000017E+03  0.3500000013E+03 -0.1499999998E+03         2
      17       1  0.1700000000E+00         1    1      1001         3  0.5000000122E+00  0.5000000021E+00  0.4999999975E+00  0.2500000012E+03  0.1150000000E+04 -0.5000000025E+02         1
      17       1  0.1700000000E+00         2    1      1002        54  0.5000000126E+00  0.5000000059E+00  0.4999999980E+00  0.2500000013E+03  0.1050000001E+04 -0.5000000020E+02         1
      17       1  0.1700000000E+00         3    1      1003       105  0.5000000145E+00  0.5000000088E+00  0.4999999986E+00  0.2500000015E+03  0.9500000009E+03 -0.5000000014E+02         1
      17       1  0.1700000000E+00         4    1      1004       156  0.5000000160E+00  0.5000000110E+00  0.4999999991E+00  0.2500000016E+03  0.8500000011E+03 -0.5000000009E+02         1
      17       1  0.1700000000E+00         5    1      1005       870  0.5000000179E+00  0.5000000139E+00  0.4999999995E+00  0.2500000018E+03  0.6500000014E+03 -0.1500000001E+03         2
      17       1  0.1700000000E+00         6    1      1006       921  0.5000000184E+00  0.5000000144E+00  0.5000000002E+00  0.2500000018E+03  0.5500000014E+03 -0.1500000000E+03         2
      17       1  0.1700000000E+00         7    1      1007       972  0.5000000184E+00  0.5000000143E+00  0.5000000010E+00  0.2500000018E+03  0.4500000014E+03 -0.1499999999E+03         2
      17       1  0.1700000000E+00         8    1      1008      1023  0.5000000180E+00  0.5000000134E+00  0.5000000021E+00  0.2500000018E+03  0.3500000013E+03 -0.1499999998E+03         2
      18       1  0.1800000000E+00         1    1      1001         3  0.5000000129E+00  0.5000000022E+00  0.4999999973E+00  0.2500000013E+03  0.1150000000E+04 -0.5000000027E+02         1
      18       1  0.1800000000E+00         2    1      1002        54  0.5000000133E+00  0.5000000062E+00  0.4999999979E+00  0.2500000013E+03  0.1050000001E+04 -0.5000000021E+02         1
      18       1  0.1800000000E+00         3    1      1003       105  0.5000000154E+00  0.5000000094E+00  0.4999999985E+00  0.2500000015E+03  0.9500000009E+03 -0.5000000015E+02         1
      18       1  0.1800000000E+00         4    1      1004       156  0.5000000169E+00  0.5000000117E+00  0.4999999991E+00  0.2500000017E+03  0.8500000012E+03 -0.5000000009E+02         1
      18       1  0.1800000000E+00         5    1      1005       870  0.5000000190E+00  0.5000000147E+00  0.4999999994E+00  0.2500000019E+03  0.6500000015E+03 -0.1500000001E+03         2
      18       1  0.1800000000E+00         6    1      1006       921  0.5000000194E+00  0.5000000152E+00  0.5000000002E+00  0.2500000019E+03  0.5500000015E+03 -0.1500000000E+03         2
      18       1  0.1800000000E+00         7    1      1007       972  0.5000000195E+00  0.5000000151E+00  0.5000000011E+00  0.2500000020E+03  0.4500000015E+03 -0.1499999999E+03         2
      18       1  0.1800000000E+00         8    1      1008      1023  0.5000000191E+00  0.5000000142E+00  0.5000000022E+00  0.2500000019E+03  0.3500000014E+03 -0.1499999998E+03         2
      19       1  0.1900000000E+00         1    1      1001         3  0.5000000137E+00  0.5000000023E+00  0.4999999972E+00  0.2500000014E+03  0.1150000000E+04 -0.5000000028E+02         1
      19       1  0.1900000000E+00         2    1      1002        54  0.5000000141E+00  0.5000000066E+00  0.4999999978E+00  0.2500000014E+03  0.1050000001E+04 -0.5000000022E+02         1
      19       1  0.1900000000E+00         3    1      1003       105  0.5000000163E+00  0.5000000099E+00  0.4999999985E+00  0.2500000016E+03  0.9500000010E+03 -0.5000000015E+02         1
      19       1  0.1900000000E+00         4    1      1004       156  0.5000000179E+00  0.5000000123E+00  0.4999999990E+00  0.2500000018E+03  0.8500000012E+03 -0.5000000010E+02         1
      19       1  0.1900000000E+00         5    1      1005       870  0.5000000201E+00  0.5000000155E+00  0.4999999994E+00  0.2500000020E+03  0.6500000015E+03 -0.1500000001E+03         2
      19       1  0.1900000000E+00         6    1      1006       921  0.5000000205E+00  0.5000000160E+00  0.5000000002E+00  0.2500000021E+03  0.5500000016E+03 -0.1500000000E+03         2