# File generated by Flopy version 3.9.1 on 05/17/2025 at 09:38:23.
BEGIN options
  BUDGET  FILEOUT  ex-gwf-whirl.cbc
  HEAD  FILEOUT  ex-gwf-whirl.hds
END options

BEGIN period  1
  SAVE  HEAD  ALL
  SAVE  BUDGET  ALL
END period  1

