# File generated by Flopy version 3.8.2 on 01/29/2025 at 06:16:28.
BEGIN options
END options

BEGIN dimensions
  MAXBOUND  572
END dimensions

BEGIN period  1
    OPEN/CLOSE  '../data/chd_000.dat'
END period  1

