# File generated by Flopy version 3.9.1 on 03/11/2025 at 13:08:42.
BEGIN options
  SAVE_SPECIFIC_DISCHARGE
END options

BEGIN griddata
  icelltype
    CONSTANT  0
  k
    CONSTANT     432.00000000
  k33
    CONSTANT     432.00000000
END griddata

