# LPF package for MODFLOW-2005 generated by Flopy 3.9.1
         0    -1E+30         0  
         1         1         1         1         1         1         0         0         0         0         0         0         0         0         0         0         0         0         0         0         0         0         0         0         0         0         0
         0         0         0         0         0         0         0         0         0         0         0         0         0         0         0         0         0         0         0         0         0         0         0         0         0         0         0
   1.000000E+00   1.000000E+00   1.000000E+00   1.000000E+00   1.000000E+00   1.000000E+00   1.000000E+00   1.000000E+00   1.000000E+00   1.000000E+00   1.000000E+00   1.000000E+00   1.000000E+00   1.000000E+00   1.000000E+00   1.000000E+00   1.000000E+00   1.000000E+00   1.000000E+00   1.000000E+00   1.000000E+00   1.000000E+00   1.000000E+00   1.000000E+00   1.000000E+00   1.000000E+00   1.000000E+00
         0         0         0         0         0         0         0         0         0         0         0         0         0         0         0         0         0         0         0         0         0         0         0         0         0         0         0
         0         0         0         0         0         0         0         0         0         0         0         0         0         0         0         0         0         0         0         0         0         0         0         0         0         0         0
INTERNAL               1  (50E15.6) -1 #hk layer 1                    
   4.320000E-01   4.320000E-01   4.320000E-01   4.320000E-01   4.320000E-01   4.320000E-01   4.320000E-01   4.320000E-01   4.320000E-01   4.320000E-01   4.320000E-01   4.320000E-01   4.320000E-01   4.320000E-01   4.320000E-01   4.320000E-01   4.320000E-01   4.320000E-01   4.320000E-01   4.320000E-01   4.320000E-01   4.320000E-01   4.320000E-01   4.320000E-01   4.320000E-01   4.320000E-01   4.320000E-01   4.320000E-01   4.320000E-01   4.320000E-01   4.320000E-01   4.320000E-01   4.320000E-01   4.320000E-01   4.320000E-01   4.320000E-01   4.320000E-01   4.320000E-01   4.320000E-01   4.320000E-01   4.320000E-01   4.320000E-01   4.320000E-01   4.320000E-01   4.320000E-01   4.320000E-01   4.320000E-01   4.320000E-01   4.320000E-01   4.320000E-01
INTERNAL               1  (50E15.6) -1 #vka1                          
   4.320000E-01   4.320000E-01   4.320000E-01   4.320000E-01   4.320000E-01   4.320000E-01   4.320000E-01   4.320000E-01   4.320000E-01   4.320000E-01   4.320000E-01   4.320000E-01   4.320000E-01   4.320000E-01   4.320000E-01   4.320000E-01   4.320000E-01   4.320000E-01   4.320000E-01   4.320000E-01   4.320000E-01   4.320000E-01   4.320000E-01   4.320000E-01   4.320000E-01   4.320000E-01   4.320000E-01   4.320000E-01   4.320000E-01   4.320000E-01   4.320000E-01   4.320000E-01   4.320000E-01   4.320000E-01   4.320000E-01   4.320000E-01   4.320000E-01   4.320000E-01   4.320000E-01   4.320000E-01   4.320000E-01   4.320000E-01   4.320000E-01   4.320000E-01   4.320000E-01   4.320000E-01   4.320000E-01   4.320000E-01   4.320000E-01   4.320000E-01
INTERNAL               1  (50E15.6) -1 #hk layer 2                    
   4.320000E-01   4.320000E-01   4.320000E-01   4.320000E-01   4.320000E-01   4.320000E-01   4.320000E-01   4.320000E-01   4.320000E-01   4.320000E-01   4.320000E-01   4.320000E-01   4.320000E-01   4.320000E-01   4.320000E-01   4.320000E-01   4.320000E-01   4.320000E-01   4.320000E-01   4.320000E-01   4.320000E-01   4.320000E-01   4.320000E-01   4.320000E-01   4.320000E-01   4.320000E-01   4.320000E-01   4.320000E-01   4.320000E-01   4.320000E-01   4.320000E-01   4.320000E-01   4.320000E-01   4.320000E-01   4.320000E-01   4.320000E-01   4.320000E-01   4.320000E-01   4.320000E-01   4.320000E-01   4.320000E-01   4.320000E-01   4.320000E-01   4.320000E-01   4.320000E-01   4.320000E-01   4.320000E-01   4.320000E-01   4.320000E-01   4.320000E-01
INTERNAL               1  (50E15.6) -1 #vka2                          
   4.320000E-01   4.320000E-01   4.320000E-01   4.320000E-01   4.320000E-01   4.320000E-01   4.320000E-01   4.320000E-01   4.320000E-01   4.320000E-01   4.320000E-01   4.320000E-01   4.320000E-01   4.320000E-01   4.320000E-01   4.320000E-01   4.320000E-01   4.320000E-01   4.320000E-01   4.320000E-01   4.320000E-01   4.320000E-01   4.320000E-01   4.320000E-01   4.320000E-01   4.320000E-01   4.320000E-01   4.320000E-01   4.320000E-01   4.320000E-01   4.320000E-01   4.320000E-01   4.320000E-01   4.320000E-01   4.320000E-01   4.320000E-01   4.320000E-01   4.320000E-01   4.320000E-01   4.320000E-01   4.320000E-01   4.320000E-01   4.320000E-01   4.320000E-01   4.320000E-01   4.320000E-01   4.320000E-01   4.320000E-01   4.320000E-01   4.320000E-01
INTERNAL               1  (50E15.6) -1 #hk layer 3                    
   4.320000E-01   4.320000E-01   4.320000E-01   4.320000E-01   4.320000E-01   4.320000E-01   4.320000E-01   4.320000E-01   4.320000E-01   4.320000E-01   4.320000E-01   4.320000E-01   4.320000E-01   4.320000E-01   4.320000E-01   4.320000E-01   4.320000E-01   4.320000E-01   4.320000E-01   4.320000E-01   4.320000E-01   4.320000E-01   4.320000E-01   4.320000E-01   4.320000E-01   4.320000E-01   4.320000E-01   4.320000E-01   4.320000E-01   4.320000E-01   4.320000E-01   4.320000E-01   4.320000E-01   4.320000E-01   4.320000E-01   4.320000E-01   4.320000E-01   4.320000E-01   4.320000E-01   4.320000E-01   4.320000E-01   4.320000E-01   4.320000E-01   4.320000E-01   4.320000E-01   4.320000E-01   4.320000E-01   4.320000E-01   4.320000E-01   4.320000E-01
INTERNAL               1  (50E15.6) -1 #vka3                          
   4.320000E-01   4.320000E-01   4.320000E-01   4.320000E-01   4.320000E-01   4.320000E-01   4.320000E-01   4.320000E-01   4.320000E-01   4.320000E-01   4.320000E-01   4.320000E-01   4.320000E-01   4.320000E-01   4.320000E-01   4.320000E-01   4.320000E-01   4.320000E-01   4.320000E-01   4.320000E-01   4.320000E-01   4.320000E-01   4.320000E-01   4.320000E-01   4.320000E-01   4.320000E-01   4.320000E-01   4.320000E-01   4.320000E-01   4.320000E-01   4.320000E-01   4.320000E-01   4.320000E-01   4.320000E-01   4.320000E-01   4.320000E-01   4.320000E-01   4.320000E-01   4.320000E-01   4.320000E-01   4.320000E-01   4.320000E-01   4.320000E-01   4.320000E-01   4.320000E-01   4.320000E-01   4.320000E-01   4.320000E-01   4.320000E-01   4.320000E-01
INTERNAL               1  (50E15.6) -1 #hk layer 4                    
   4.320000E-01   4.320000E-01   4.320000E-01   4.320000E-01   4.320000E-01   4.320000E-01   4.320000E-01   4.320000E-01   4.320000E-01   4.320000E-01   4.320000E-01   4.320000E-01   4.320000E-01   4.320000E-01   4.320000E-01   4.320000E-01   4.320000E-01   4.320000E-01   4.320000E-01   4.320000E-01   4.320000E-01   4.320000E-01   4.320000E-01   4.320000E-01   4.320000E-01   4.320000E-01   4.320000E-01   4.320000E-01   4.320000E-01   4.320000E-01   4.320000E-01   4.320000E-01   4.320000E-01   4.320000E-01   4.320000E-01   4.320000E-01   4.320000E-01   4.320000E-01   4.320000E-01   4.320000E-01   4.320000E-01   4.320000E-01   4.320000E-01   4.320000E-01   4.320000E-01   4.320000E-01   4.320000E-01   4.320000E-01   4.320000E-01   4.320000E-01
INTERNAL               1  (50E15.6) -1 #vka4                          
   4.320000E-01   4.320000E-01   4.320000E-01   4.320000E-01   4.320000E-01   4.320000E-01   4.320000E-01   4.320000E-01   4.320000E-01   4.320000E-01   4.320000E-01   4.320000E-01   4.320000E-01   4.320000E-01   4.320000E-01   4.320000E-01   4.320000E-01   4.320000E-01   4.320000E-01   4.320000E-01   4.320000E-01   4.320000E-01   4.320000E-01   4.320000E-01   4.320000E-01   4.320000E-01   4.320000E-01   4.320000E-01   4.320000E-01   4.320000E-01   4.320000E-01   4.320000E-01   4.320000E-01   4.320000E-01   4.320000E-01   4.320000E-01   4.320000E-01   4.320000E-01   4.320000E-01   4.320000E-01   4.320000E-01   4.320000E-01   4.320000E-01   4.320000E-01   4.320000E-01   4.320000E-01   4.320000E-01   4.320000E-01   4.320000E-01   4.320000E-01
INTERNAL               1  (50E15.6) -1 #hk layer 5                    
   4.320000E-01   4.320000E-01   4.320000E-01   4.320000E-01   4.320000E-01   4.320000E-01   4.320000E-01   4.320000E-01   4.320000E-01   4.320000E-01   4.320000E-01   4.320000E-01   4.320000E-01   4.320000E-01   4.320000E-01   4.320000E-01   4.320000E-01   4.320000E-01   4.320000E-01   4.320000E-01   4.320000E-01   4.320000E-01   4.320000E-01   4.320000E-01   4.320000E-01   4.320000E-01   4.320000E-01   4.320000E-01   4.320000E-01   4.320000E-01   4.320000E-01   4.320000E-01   4.320000E-01   4.320000E-01   4.320000E-01   4.320000E-01   4.320000E-01   4.320000E-01   4.320000E-01   4.320000E-01   4.320000E-01   4.320000E-01   4.320000E-01   4.320000E-01   4.320000E-01   4.320000E-01   4.320000E-01   4.320000E-01   4.320000E-01   4.320000E-01
INTERNAL               1  (50E15.6) -1 #vka5                          
   4.320000E-01   4.320000E-01   4.320000E-01   4.320000E-01   4.320000E-01   4.320000E-01   4.320000E-01   4.320000E-01   4.320000E-01   4.320000E-01   4.320000E-01   4.320000E-01   4.320000E-01   4.320000E-01   4.320000E-01   4.320000E-01   4.320000E-01   4.320000E-01   4.320000E-01   4.320000E-01   4.320000E-01   4.320000E-01   4.320000E-01   4.320000E-01   4.320000E-01   4.320000E-01   4.320000E-01   4.320000E-01   4.320000E-01   4.320000E-01   4.320000E-01   4.320000E-01   4.320000E-01   4.320000E-01   4.320000E-01   4.320000E-01   4.320000E-01   4.320000E-01   4.320000E-01   4.320000E-01   4.320000E-01   4.320000E-01   4.320000E-01   4.320000E-01   4.320000E-01   4.320000E-01   4.320000E-01   4.320000E-01   4.320000E-01   4.320000E-01
INTERNAL               1  (50E15.6) -1 #hk layer 6                    
   4.320000E-01   4.320000E-01   4.320000E-01   4.320000E-01   4.320000E-01   4.320000E-01   4.320000E-01   4.320000E-01   4.320000E-01   4.320000E-01   4.320000E-01   4.320000E-01   4.320000E-01   4.320000E-01   4.320000E-01   4.320000E-01   4.320000E-01   4.320000E-01   4.320000E-01   4.320000E-01   4.320000E-01   4.320000E-01   4.320000E-01   4.320000E-01   4.320000E-01   4.320000E-01   4.320000E-01   4.320000E-01   4.320000E-01   4.320000E-01   4.320000E-01   4.320000E-01   4.320000E-01   4.320000E-01   4.320000E-01   4.320000E-01   4.320000E-01   4.320000E-01   4.320000E-01   4.320000E-01   4.320000E-01   4.320000E-01   4.320000E-01   4.320000E-01   4.320000E-01   4.320000E-01   4.320000E-01   4.320000E-01   4.320000E-01   4.320000E-01
INTERNAL               1  (50E15.6) -1 #vka6                          
   4.320000E-01   4.320000E-01   4.320000E-01   4.320000E-01   4.320000E-01   4.320000E-01   4.320000E-01   4.320000E-01   4.320000E-01   4.320000E-01   4.320000E-01   4.320000E-01   4.320000E-01   4.320000E-01   4.320000E-01   4.320000E-01   4.320000E-01   4.320000E-01   4.320000E-01   4.320000E-01   4.320000E-01   4.320000E-01   4.320000E-01   4.320000E-01   4.320000E-01   4.320000E-01   4.320000E-01   4.320000E-01   4.320000E-01   4.320000E-01   4.320000E-01   4.320000E-01   4.320000E-01   4.320000E-01   4.320000E-01   4.320000E-01   4.320000E-01   4.320000E-01   4.320000E-01   4.320000E-01   4.320000E-01   4.320000E-01   4.320000E-01   4.320000E-01   4.320000E-01   4.320000E-01   4.320000E-01   4.320000E-01   4.320000E-01   4.320000E-01
INTERNAL               1  (50E15.6) -1 #hk layer 7                    
   4.320000E-01   4.320000E-01   4.320000E-01   4.320000E-01   4.320000E-01   4.320000E-01   4.320000E-01   4.320000E-01   4.320000E-01   4.320000E-01   4.320000E-01   4.320000E-01   4.320000E-01   4.320000E-01   4.320000E-01   4.320000E-01   4.320000E-01   4.320000E-01   4.320000E-01   4.320000E-01   4.320000E-01   4.320000E-01   4.320000E-01   4.320000E-01   4.320000E-01   4.320000E-01   4.320000E-01   4.320000E-01   4.320000E-01   4.320000E-01   4.320000E-01   4.320000E-01   4.320000E-01   4.320000E-01   4.320000E-01   4.320000E-01   4.320000E-01   4.320000E-01   4.320000E-01   4.320000E-01   4.320000E-01   4.320000E-01   4.320000E-01   4.320000E-01   4.320000E-01   4.320000E-01   4.320000E-01   4.320000E-01   4.320000E-01   4.320000E-01
INTERNAL               1  (50E15.6) -1 #vka7                          
   4.320000E-01   4.320000E-01   4.320000E-01   4.320000E-01   4.320000E-01   4.320000E-01   4.320000E-01   4.320000E-01   4.320000E-01   4.320000E-01   4.320000E-01   4.320000E-01   4.320000E-01   4.320000E-01   4.320000E-01   4.320000E-01   4.320000E-01   4.320000E-01   4.320000E-01   4.320000E-01   4.320000E-01   4.320000E-01   4.320000E-01   4.320000E-01   4.320000E-01   4.320000E-01   4.320000E-01   4.320000E-01   4.320000E-01   4.320000E-01   4.320000E-01   4.320000E-01   4.320000E-01   4.320000E-01   4.320000E-01   4.320000E-01   4.320000E-01   4.320000E-01   4.320000E-01   4.320000E-01   4.320000E-01   4.320000E-01   4.320000E-01   4.320000E-01   4.320000E-01   4.320000E-01   4.320000E-01   4.320000E-01   4.320000E-01   4.320000E-01
INTERNAL               1  (50E15.6) -1 #hk layer 8                    
   4.320000E-01   4.320000E-01   4.320000E-01   4.320000E-01   4.320000E-01   4.320000E-01   4.320000E-01   4.320000E-01   4.320000E-01   4.320000E-01   4.320000E-01   4.320000E-01   4.320000E-01   4.320000E-01   4.320000E-01   4.320000E-01   4.320000E-01   4.320000E-01   4.320000E-01   4.320000E-01   4.320000E-01   4.320000E-01   4.320000E-01   4.320000E-01   4.320000E-01   4.320000E-01   4.320000E-01   4.320000E-01   4.320000E-01   4.320000E-01   4.320000E-01   4.320000E-01   4.320000E-01   4.320000E-01   4.320000E-01   4.320000E-01   4.320000E-01   4.320000E-01   4.320000E-01   4.320000E-01   4.320000E-01   4.320000E-01   4.320000E-01   4.320000E-01   4.320000E-01   4.320000E-01   4.320000E-01   4.320000E-01   4.320000E-01   4.320000E-01
INTERNAL               1  (50E15.6) -1 #vka8                          
   4.320000E-01   4.320000E-01   4.320000E-01   4.320000E-01   4.320000E-01   4.320000E-01   4.320000E-01   4.320000E-01   4.320000E-01   4.320000E-01   4.320000E-01   4.320000E-01   4.320000E-01   4.320000E-01   4.320000E-01   4.320000E-01   4.320000E-01   4.320000E-01   4.320000E-01   4.320000E-01   4.320000E-01   4.320000E-01   4.320000E-01   4.320000E-01   4.320000E-01   4.320000E-01   4.320000E-01   4.320000E-01   4.320000E-01   4.320000E-01   4.320000E-01   4.320000E-01   4.320000E-01   4.320000E-01   4.320000E-01   4.320000E-01   4.320000E-01   4.320000E-01   4.320000E-01   4.320000E-01   4.320000E-01   4.320000E-01   4.320000E-01   4.320000E-01   4.320000E-01   4.320000E-01   4.320000E-01   4.320000E-01   4.320000E-01   4.320000E-01
INTERNAL               1  (50E15.6) -1 #hk layer 9                    
   4.320000E-01   4.320000E-01   4.320000E-01   4.320000E-01   4.320000E-01   4.320000E-01   4.320000E-01   4.320000E-01   4.320000E-01   4.320000E-01   4.320000E-01   4.320000E-01   4.320000E-01   4.320000E-01   4.320000E-01   4.320000E-01   4.320000E-01   4.320000E-01   4.320000E-01   4.320000E-01   4.320000E-01   4.320000E-01   4.320000E-01   4.320000E-01   4.320000E-01   4.320000E-01   4.320000E-01   4.320000E-01   4.320000E-01   4.320000E-01   4.320000E-01   4.320000E-01   4.320000E-01   4.320000E-01   4.320000E-01   4.320000E-01   4.320000E-01   4.320000E-01   4.320000E-01   4.320000E-01   4.320000E-01   4.320000E-01   4.320000E-01   4.320000E-01   4.320000E-01   4.320000E-01   4.320000E-01   4.320000E-01   4.320000E-01   4.320000E-01
INTERNAL               1  (50E15.6) -1 #vka9                          
   4.320000E-01   4.320000E-01   4.320000E-01   4.320000E-01   4.320000E-01   4.320000E-01   4.320000E-01   4.320000E-01   4.320000E-01   4.320000E-01   4.320000E-01   4.320000E-01   4.320000E-01   4.320000E-01   4.320000E-01   4.320000E-01   4.320000E-01   4.320000E-01   4.320000E-01   4.320000E-01   4.320000E-01   4.320000E-01   4.320000E-01   4.320000E-01   4.320000E-01   4.320000E-01   4.320000E-01   4.320000E-01   4.320000E-01   4.320000E-01   4.320000E-01   4.320000E-01   4.320000E-01   4.320000E-01   4.320000E-01   4.320000E-01   4.320000E-01   4.320000E-01   4.320000E-01   4.320000E-01   4.320000E-01   4.320000E-01   4.320000E-01   4.320000E-01   4.320000E-01   4.320000E-01   4.320000E-01   4.320000E-01   4.320000E-01   4.320000E-01
INTERNAL               1  (50E15.6) -1 #hk layer 10                   
   4.320000E-01   4.320000E-01   4.320000E-01   4.320000E-01   4.320000E-01   4.320000E-01   4.320000E-01   4.320000E-01   4.320000E-01   4.320000E-01   4.320000E-01   4.320000E-01   4.320000E-01   4.320000E-01   4.320000E-01   4.320000E-01   4.320000E-01   4.320000E-01   4.320000E-01   4.320000E-01   4.320000E-01   4.320000E-01   4.320000E-01   4.320000E-01   4.320000E-01   4.320000E-01   4.320000E-01   4.320000E-01   4.320000E-01   4.320000E-01   4.320000E-01   4.320000E-01   4.320000E-01   4.320000E-01   4.320000E-01   4.320000E-01   4.320000E-01   4.320000E-01   4.320000E-01   4.320000E-01   4.320000E-01   4.320000E-01   4.320000E-01   4.320000E-01   4.320000E-01   4.320000E-01   4.320000E-01   4.320000E-01   4.320000E-01   4.320000E-01
INTERNAL               1  (50E15.6) -1 #vka10                         
   4.320000E-01   4.320000E-01   4.320000E-01   4.320000E-01   4.320000E-01   4.320000E-01   4.320000E-01   4.320000E-01   4.320000E-01   4.320000E-01   4.320000E-01   4.320000E-01   4.320000E-01   4.320000E-01   4.320000E-01   4.320000E-01   4.320000E-01   4.320000E-01   4.320000E-01   4.320000E-01   4.320000E-01   4.320000E-01   4.320000E-01   4.320000E-01   4.320000E-01   4.320000E-01   4.320000E-01   4.320000E-01   4.320000E-01   4.320000E-01   4.320000E-01   4.320000E-01   4.320000E-01   4.320000E-01   4.320000E-01   4.320000E-01   4.320000E-01   4.320000E-01   4.320000E-01   4.320000E-01   4.320000E-01   4.320000E-01   4.320000E-01   4.320000E-01   4.320000E-01   4.320000E-01   4.320000E-01   4.320000E-01   4.320000E-01   4.320000E-01
INTERNAL               1  (50E15.6) -1 #hk layer 11                   
   4.320000E-01   4.320000E-01   4.320000E-01   4.320000E-01   4.320000E-01   4.320000E-01   4.320000E-01   4.320000E-01   4.320000E-01   4.320000E-01   4.320000E-01   4.320000E-01   4.320000E-01   4.320000E-01   4.320000E-01   4.320000E-01   4.320000E-01   4.320000E-01   4.320000E-01   4.320000E-01   4.320000E-01   4.320000E-01   4.320000E-01   4.320000E-01   4.320000E-01   4.320000E-01   4.320000E-01   4.320000E-01   4.320000E-01   4.320000E-01   4.320000E-01   4.320000E-01   4.320000E-01   4.320000E-01   4.320000E-01   4.320000E-01   4.320000E-01   4.320000E-01   4.320000E-01   4.320000E-01   4.320000E-01   4.320000E-01   4.320000E-01   4.320000E-01   4.320000E-01   4.320000E-01   4.320000E-01   4.320000E-01   4.320000E-01   4.320000E-01
INTERNAL               1  (50E15.6) -1 #vka11                         
   4.320000E-01   4.320000E-01   4.320000E-01   4.320000E-01   4.320000E-01   4.320000E-01   4.320000E-01   4.320000E-01   4.320000E-01   4.320000E-01   4.320000E-01   4.320000E-01   4.320000E-01   4.320000E-01   4.320000E-01   4.320000E-01   4.320000E-01   4.320000E-01   4.320000E-01   4.320000E-01   4.320000E-01   4.320000E-01   4.320000E-01   4.320000E-01   4.320000E-01   4.320000E-01   4.320000E-01   4.320000E-01   4.320000E-01   4.320000E-01   4.320000E-01   4.320000E-01   4.320000E-01   4.320000E-01   4.320000E-01   4.320000E-01   4.320000E-01   4.320000E-01   4.320000E-01   4.320000E-01   4.320000E-01   4.320000E-01   4.320000E-01   4.320000E-01   4.320000E-01   4.320000E-01   4.320000E-01   4.320000E-01   4.320000E-01   4.320000E-01
INTERNAL               1  (50E15.6) -1 #hk layer 12                   
   8.640000E+00   8.640000E+00   8.640000E+00   8.640000E+00   8.640000E+00   8.640000E+00   8.640000E+00   8.640000E+00   8.640000E+00   8.640000E+00   8.640000E+00   8.640000E+00   8.640000E+00   8.640000E+00   8.640000E+00   8.640000E+00   8.640000E+00   8.640000E+00   8.640000E+00   8.640000E+00   8.640000E+00   8.640000E+00   8.640000E+00   8.640000E+00   4.320000E-01   4.320000E-01   4.320000E-01   4.320000E-01   4.320000E-01   4.320000E-01   4.320000E-01   4.320000E-01   4.320000E-01   4.320000E-01   4.320000E-01   4.320000E-01   8.640000E+00   8.640000E+00   8.640000E+00   8.640000E+00   8.640000E+00   8.640000E+00   8.640000E+00   8.640000E+00   8.640000E+00   8.640000E+00   8.640000E+00   8.640000E+00   8.640000E+00   8.640000E+00
INTERNAL               1  (50E15.6) -1 #vka12                         
   8.640000E+00   8.640000E+00   8.640000E+00   8.640000E+00   8.640000E+00   8.640000E+00   8.640000E+00   8.640000E+00   8.640000E+00   8.640000E+00   8.640000E+00   8.640000E+00   8.640000E+00   8.640000E+00   8.640000E+00   8.640000E+00   8.640000E+00   8.640000E+00   8.640000E+00   8.640000E+00   8.640000E+00   8.640000E+00   8.640000E+00   8.640000E+00   4.320000E-01   4.320000E-01   4.320000E-01   4.320000E-01   4.320000E-01   4.320000E-01   4.320000E-01   4.320000E-01   4.320000E-01   4.320000E-01   4.320000E-01   4.320000E-01   8.640000E+00   8.640000E+00   8.640000E+00   8.640000E+00   8.640000E+00   8.640000E+00   8.640000E+00   8.640000E+00   8.640000E+00   8.640000E+00   8.640000E+00   8.640000E+00   8.640000E+00   8.640000E+00
INTERNAL               1  (50E15.6) -1 #hk layer 13                   
   8.640000E+00   8.640000E+00   8.640000E+00   8.640000E+00   8.640000E+00   8.640000E+00   8.640000E+00   8.640000E+00   8.640000E+00   8.640000E+00   8.640000E+00   8.640000E+00   8.640000E+00   8.640000E+00   8.640000E+00   8.640000E+00   8.640000E+00   8.640000E+00   8.640000E+00   8.640000E+00   8.640000E+00   8.640000E+00   8.640000E+00   8.640000E+00   4.320000E-01   4.320000E-01   4.320000E-01   4.320000E-01   4.320000E-01   4.320000E-01   4.320000E-01   4.320000E-01   4.320000E-01   4.320000E-01   4.320000E-01   4.320000E-01   8.640000E+00   8.640000E+00   8.640000E+00   8.640000E+00   8.640000E+00   8.640000E+00   8.640000E+00   8.640000E+00   8.640000E+00   8.640000E+00   8.640000E+00   8.640000E+00   8.640000E+00   8.640000E+00
INTERNAL               1  (50E15.6) -1 #vka13                         
   8.640000E+00   8.640000E+00   8.640000E+00   8.640000E+00   8.640000E+00   8.640000E+00   8.640000E+00   8.640000E+00   8.640000E+00   8.640000E+00   8.640000E+00   8.640000E+00   8.640000E+00   8.640000E+00   8.640000E+00   8.640000E+00   8.640000E+00   8.640000E+00   8.640000E+00   8.640000E+00   8.640000E+00   8.640000E+00   8.640000E+00   8.640000E+00   4.320000E-01   4.320000E-01   4.320000E-01   4.320000E-01   4.320000E-01   4.320000E-01   4.320000E-01   4.320000E-01   4.320000E-01   4.320000E-01   4.320000E-01   4.320000E-01   8.640000E+00   8.640000E+00   8.640000E+00   8.640000E+00   8.640000E+00   8.640000E+00   8.640000E+00   8.640000E+00   8.640000E+00   8.640000E+00   8.640000E+00   8.640000E+00   8.640000E+00   8.640000E+00
INTERNAL               1  (50E15.6) -1 #hk layer 14                   
   8.640000E+00   8.640000E+00   8.640000E+00   8.640000E+00   8.640000E+00   8.640000E+00   8.640000E+00   8.640000E+00   8.640000E+00   8.640000E+00   8.640000E+00   8.640000E+00   8.640000E+00   8.640000E+00   8.640000E+00   8.640000E+00   8.640000E+00   8.640000E+00   8.640000E+00   8.640000E+00   8.640000E+00   8.640000E+00   8.640000E+00   8.640000E+00   4.320000E-01   4.320000E-01   4.320000E-01   4.320000E-01   4.320000E-01   4.320000E-01   4.320000E-01   4.320000E-01   4.320000E-01   4.320000E-01   4.320000E-01   4.320000E-01   8.640000E+00   8.640000E+00   8.640000E+00   8.640000E+00   8.640000E+00   8.640000E+00   8.640000E+00   8.640000E+00   8.640000E+00   8.640000E+00   8.640000E+00   8.640000E+00   8.640000E+00   8.640000E+00
INTERNAL               1  (50E15.6) -1 #vka14                         
   8.640000E+00   8.640000E+00   8.640000E+00   8.640000E+00   8.640000E+00   8.640000E+00   8.640000E+00   8.640000E+00   8.640000E+00   8.640000E+00   8.640000E+00   8.640000E+00   8.640000E+00   8.640000E+00   8.640000E+00   8.640000E+00   8.640000E+00   8.640000E+00   8.640000E+00   8.640000E+00   8.640000E+00   8.640000E+00   8.640000E+00   8.640000E+00   4.320000E-01   4.320000E-01   4.320000E-01   4.320000E-01   4.320000E-01   4.320000E-01   4.320000E-01   4.320000E-01   4.320000E-01   4.320000E-01   4.320000E-01   4.320000E-01   8.640000E+00   8.640000E+00   8.640000E+00   8.640000E+00   8.640000E+00   8.640000E+00   8.640000E+00   8.640000E+00   8.640000E+00   8.640000E+00   8.640000E+00   8.640000E+00   8.640000E+00   8.640000E+00
INTERNAL               1  (50E15.6) -1 #hk layer 15                   
   8.640000E+00   8.640000E+00   8.640000E+00   8.640000E+00   8.640000E+00   8.640000E+00   8.640000E+00   8.640000E+00   8.640000E+00   8.640000E+00   8.640000E+00   8.640000E+00   8.640000E+00   8.640000E+00   8.640000E+00   8.640000E+00   8.640000E+00   8.640000E+00   8.640000E+00   8.640000E+00   8.640000E+00   8.640000E+00   8.640000E+00   8.640000E+00   4.320000E-01   4.320000E-01   4.320000E-01   4.320000E-01   4.320000E-01   4.320000E-01   4.320000E-01   4.320000E-01   4.320000E-01   4.320000E-01   4.320000E-01   4.320000E-01   8.640000E+00   8.640000E+00   8.640000E+00   8.640000E+00   8.640000E+00   8.640000E+00   8.640000E+00   8.640000E+00   8.640000E+00   8.640000E+00   8.640000E+00   8.640000E+00   8.640000E+00   8.640000E+00
INTERNAL               1  (50E15.6) -1 #vka15                         
   8.640000E+00   8.640000E+00   8.640000E+00   8.640000E+00   8.640000E+00   8.640000E+00   8.640000E+00   8.640000E+00   8.640000E+00   8.640000E+00   8.640000E+00   8.640000E+00   8.640000E+00   8.640000E+00   8.640000E+00   8.640000E+00   8.640000E+00   8.640000E+00   8.640000E+00   8.640000E+00   8.640000E+00   8.640000E+00   8.640000E+00   8.640000E+00   4.320000E-01   4.320000E-01   4.320000E-01   4.320000E-01   4.320000E-01   4.320000E-01   4.320000E-01   4.320000E-01   4.320000E-01   4.320000E-01   4.320000E-01   4.320000E-01   8.640000E+00   8.640000E+00   8.640000E+00   8.640000E+00   8.640000E+00   8.640000E+00   8.640000E+00   8.640000E+00   8.640000E+00   8.640000E+00   8.640000E+00   8.640000E+00   8.640000E+00   8.640000E+00
INTERNAL               1  (50E15.6) -1 #hk layer 16                   
   8.640000E+00   8.640000E+00   8.640000E+00   8.640000E+00   8.640000E+00   8.640000E+00   8.640000E+00   8.640000E+00   8.640000E+00   8.640000E+00   8.640000E+00   8.640000E+00   8.640000E+00   8.640000E+00   8.640000E+00   8.640000E+00   8.640000E+00   8.640000E+00   8.640000E+00   8.640000E+00   8.640000E+00   8.640000E+00   8.640000E+00   8.640000E+00   4.320000E-01   4.320000E-01   4.320000E-01   4.320000E-01   4.320000E-01   4.320000E-01   4.320000E-01   4.320000E-01   4.320000E-01   4.320000E-01   4.320000E-01   4.320000E-01   8.640000E+00   8.640000E+00   8.640000E+00   8.640000E+00   8.640000E+00   8.640000E+00   8.640000E+00   8.640000E+00   8.640000E+00   8.640000E+00   8.640000E+00   8.640000E+00   8.640000E+00   8.640000E+00
INTERNAL               1  (50E15.6) -1 #vka16                         
   8.640000E+00   8.640000E+00   8.640000E+00   8.640000E+00   8.640000E+00   8.640000E+00   8.640000E+00   8.640000E+00   8.640000E+00   8.640000E+00   8.640000E+00   8.640000E+00   8.640000E+00   8.640000E+00   8.640000E+00   8.640000E+00   8.640000E+00   8.640000E+00   8.640000E+00   8.640000E+00   8.640000E+00   8.640000E+00   8.640000E+00   8.640000E+00   4.320000E-01   4.320000E-01   4.320000E-01   4.320000E-01   4.320000E-01   4.320000E-01   4.320000E-01   4.320000E-01   4.320000E-01   4.320000E-01   4.320000E-01   4.320000E-01   8.640000E+00   8.640000E+00   8.640000E+00   8.640000E+00   8.640000E+00   8.640000E+00   8.640000E+00   8.640000E+00   8.640000E+00   8.640000E+00   8.640000E+00   8.640000E+00   8.640000E+00   8.640000E+00
INTERNAL               1  (50E15.6) -1 #hk layer 17                   
   8.640000E+00   8.640000E+00   8.640000E+00   8.640000E+00   8.640000E+00   8.640000E+00   8.640000E+00   8.640000E+00   8.640000E+00   8.640000E+00   8.640000E+00   8.640000E+00   8.640000E+00   8.640000E+00   8.640000E+00   8.640000E+00   8.640000E+00   8.640000E+00   8.640000E+00   8.640000E+00   8.640000E+00   8.640000E+00   8.640000E+00   8.640000E+00   4.320000E-01   4.320000E-01   4.320000E-01   4.320000E-01   4.320000E-01   4.320000E-01   4.320000E-01   4.320000E-01   4.320000E-01   4.320000E-01   4.320000E-01   4.320000E-01   8.640000E+00   8.640000E+00   8.640000E+00   8.640000E+00   8.640000E+00   8.640000E+00   8.640000E+00   8.640000E+00   8.640000E+00   8.640000E+00   8.640000E+00   8.640000E+00   8.640000E+00   8.640000E+00
INTERNAL               1  (50E15.6) -1 #vka17                         
   8.640000E+00   8.640000E+00   8.640000E+00   8.640000E+00   8.640000E+00   8.640000E+00   8.640000E+00   8.640000E+00   8.640000E+00   8.640000E+00   8.640000E+00   8.640000E+00   8.640000E+00   8.640000E+00   8.640000E+00   8.640000E+00   8.640000E+00   8.640000E+00   8.640000E+00   8.640000E+00   8.640000E+00   8.640000E+00   8.640000E+00   8.640000E+00   4.320000E-01   4.320000E-01   4.320000E-01   4.320000E-01   4.320000E-01   4.320000E-01   4.320000E-01   4.320000E-01   4.320000E-01   4.320000E-01   4.320000E-01   4.320000E-01   8.640000E+00   8.640000E+00   8.640000E+00   8.640000E+00   8.640000E+00   8.640000E+00   8.640000E+00   8.640000E+00   8.640000E+00   8.640000E+00   8.640000E+00   8.640000E+00   8.640000E+00   8.640000E+00
INTERNAL               1  (50E15.6) -1 #hk layer 18                   