# File generated by Flopy version 3.9.1 on 05/09/2025 at 07:40:44.
BEGIN options
END options

BEGIN griddata
  strt
    CONSTANT      10.00000000
END griddata

