# File generated by Flopy version 3.8.2 on 01/28/2025 at 15:34:38.
BEGIN options
  BOUNDNAMES
  OBS6  FILEIN  sgn.drn.obs
END options

BEGIN dimensions
  MAXBOUND  22488
END dimensions

BEGIN period  1
  1 1 1.13177490E+02 10000 surf-drn
  1 2 1.12953094E+02 10000 surf-drn
  1 3 1.12823677E+02 10000 surf-drn
  1 4 1.13816414E+02 10000 surf-drn
  1 5 1.13899864E+02 10000 surf-drn
  1 6 1.13735413E+02 10000 surf-drn
  1 7 1.13585297E+02 10000 surf-drn
  1 8 1.12338631E+02 10000 surf-drn
  1 9 1.12987053E+02 10000 surf-drn
  1 10 1.12870750E+02 10000 surf-drn
  1 11 1.13228546E+02 10000 surf-drn
  1 12 1.12411835E+02 10000 surf-drn
  1 13 1.12526192E+02 10000 surf-drn
  1 14 1.12044807E+02 10000 surf-drn
  1 15 1.12005424E+02 10000 surf-drn
  1 16 1.12547539E+02 10000 surf-drn
  1 17 1.12717354E+02 10000 surf-drn
  1 18 1.12765198E+02 10000 surf-drn
  1 19 1.12861305E+02 10000 surf-drn
  1 20 1.12884842E+02 10000 surf-drn
  1 21 1.13024460E+02 10000 surf-drn
  1 22 1.13011833E+02 10000 surf-drn
  1 23 1.12959160E+02 10000 surf-drn
  1 24 1.12922859E+02 10000 surf-drn
  1 25 1.12267487E+02 10000 surf-drn
  1 26 1.12312408E+02 10000 surf-drn
  1 27 1.11811623E+02 10000 surf-drn
  1 28 1.11700615E+02 10000 surf-drn
  1 29 1.11674988E+02 10000 surf-drn
  1 30 1.11654732E+02 10000 surf-drn
  1 31 1.11644028E+02 10000 surf-drn
  1 32 1.11664268E+02 10000 surf-drn
  1 33 1.11589607E+02 10000 surf-drn
  1 34 1.11617195E+02 10000 surf-drn
  1 35 1.10703079E+02 10000 surf-drn
  1 36 1.10467506E+02 10000 surf-drn
  1 37 1.09921143E+02 10000 surf-drn
  1 38 1.14837891E+02 10000 surf-drn
  1 39 1.11586693E+02 10000 surf-drn
  1 40 1.10366127E+02 10000 surf-drn
  1 41 1.10196594E+02 10000 surf-drn
  1 42 1.10120018E+02 10000 surf-drn
  1 43 1.10087860E+02 10000 surf-drn
  1 44 1.10091873E+02 10000 surf-drn
  1 45 1.10001785E+02 10000 surf-drn
  1 46 1.09824280E+02 10000 surf-drn
  1 47 1.09728333E+02 10000 surf-drn
  1 48 1.09995323E+02 10000 surf-drn
  1 49 1.09921333E+02 10000 surf-drn
  1 50 1.09902580E+02 10000 surf-drn
  1 51 1.09634712E+02 10000 surf-drn
  1 52 1.09548378E+02 10000 surf-drn
  1 53 1.09672913E+02 10000 surf-drn
  1 54 1.09839790E+02 10000 surf-drn
  1 55 1.10138969E+02 10000 surf-drn
  1 56 1.11516335E+02 10000 surf-drn
  1 57 1.10932060E+02 10000 surf-drn
  1 58 1.09805801E+02 10000 surf-drn
  1 59 1.13858498E+02 10000 surf-drn
  1 60 1.09583870E+02 10000 surf-drn
  1 61 1.09680405E+02 10000 surf-drn
  1 62 1.10263596E+02 10000 surf-drn
  1 63 1.10819313E+02 10000 surf-drn
  1 64 1.11224785E+02 10000 surf-drn
  1 65 1.12151283E+02 10000 surf-drn
  1 66 1.10500374E+02 10000 surf-drn
  1 67 1.09965721E+02 10000 surf-drn
  1 68 1.09342720E+02 10000 surf-drn
  1 69 1.09200485E+02 10000 surf-drn
  1 70 1.09439117E+02 10000 surf-drn
  1 71 1.09322586E+02 10000 surf-drn
  1 72 1.09696777E+02 10000 surf-drn
  1 73 1.09428444E+02 10000 surf-drn
  1 74 1.09382339E+02 10000 surf-drn
  1 75 1.09494057E+02 10000 surf-drn
  1 76 1.09460510E+02 10000 surf-drn
  1 77 1.10777733E+02 10000 surf-drn
  1 78 1.10063278E+02 10000 surf-drn
  1 79 1.11237068E+02 10000 surf-drn
  1 80 1.10136604E+02 10000 surf-drn
  1 81 1.09726440E+02 10000 surf-drn
  1 82 1.09631401E+02 10000 surf-drn
  1 83 1.09873985E+02 10000 surf-drn
  1 84 1.09678680E+02 10000 surf-drn
  1 85 1.09596611E+02 10000 surf-drn
  1 86 1.09528435E+02 10000 surf-drn
  1 87 1.09646034E+02 10000 surf-drn
  1 88 1.09687454E+02 10000 surf-drn
  1 89 1.09875298E+02 10000 surf-drn
  1 90 1.09689125E+02 10000 surf-drn
  1 91 1.09625130E+02 10000 surf-drn
  1 92 1.09545059E+02 10000 surf-drn
  1 93 1.09700867E+02 10000 surf-drn
  1 94 1.09068024E+02 10000 surf-drn
  1 95 1.09265320E+02 10000 surf-drn
  1 96 1.09417542E+02 10000 surf-drn
  1 97 1.09671783E+02 10000 surf-drn
  1 98 1.09417824E+02 10000 surf-drn
  1 99 1.09702568E+02 10000 surf-drn
  1 100 1.10053932E+02 10000 surf-drn
  1 101 1.10046158E+02 10000 surf-drn
  1 102 1.10304825E+02 10000 surf-drn
  1 103 1.10063057E+02 10000 surf-drn
  1 104 1.09587326E+02 10000 surf-drn
  1 105 1.09371132E+02 10000 surf-drn
  1 106 1.09060875E+02 10000 surf-drn
  1 107 1.09023613E+02 10000 surf-drn
  1 108 1.08709038E+02 10000 surf-drn
  1 109 1.08554245E+02 10000 surf-drn
  1 110 1.09017891E+02 10000 surf-drn
  1 111 1.08665825E+02 10000 surf-drn
  1 112 1.08382362E+02 10000 surf-drn
  1 113 1.08238518E+02 10000 surf-drn
  1 114 1.08157547E+02 10000 surf-drn
  1 115 1.08238251E+02 10000 surf-drn
  1 116 1.08197502E+02 10000 surf-drn
  1 117 1.08061935E+02 10000 surf-drn
  1 118 1.08115631E+02 10000 surf-drn
  1 119 1.08161354E+02 10000 surf-drn
  1 120 1.08166283E+02 10000 surf-drn
  1 121 1.08519760E+02 10000 surf-drn
  1 122 1.08642883E+02 10000 surf-drn
  1 123 1.12867729E+02 10000 surf-drn
  1 124 1.13751236E+02 10000 surf-drn
  1 125 1.13363731E+02 10000 surf-drn
  1 126 1.13845573E+02 10000 surf-drn
  1 127 1.13674713E+02 10000 surf-drn
  1 128 1.13624489E+02 10000 surf-drn
  1 129 1.13761055E+02 10000 surf-drn
  1 130 1.12644417E+02 10000 surf-drn
  1 131 1.13088905E+02 10000 surf-drn
  1 132 1.12768143E+02 10000 surf-drn
  1 133 1.12623909E+02 10000 surf-drn
  1 134 1.12461121E+02 10000 surf-drn
  1 135 1.12275345E+02 10000 surf-drn
  1 136 1.12218590E+02 10000 surf-drn
  1 137 1.12121338E+02 10000 surf-drn
  1 138 1.12354240E+02 10000 surf-drn
  1 139 1.12627304E+02 10000 surf-drn
  1 140 1.12831299E+02 10000 surf-drn
  1 141 1.12822380E+02 10000 surf-drn
  1 142 1.12988586E+02 10000 surf-drn
  1 143 1.13017639E+02 10000 surf-drn
  1 144 1.13032219E+02 10000 surf-drn
  1 145 1.13037155E+02 10000 surf-drn
  1 146 1.12971535E+02 10000 surf-drn
  1 147 1.12508568E+02 10000 surf-drn
  1 148 1.12411461E+02 10000 surf-drn
  1 149 1.11804565E+02 10000 surf-drn
  1 150 1.11722237E+02 10000 surf-drn
  1 151 1.11580589E+02 10000 surf-drn
  1 152 1.11555626E+02 10000 surf-drn
  1 153 1.11489082E+02 10000 surf-drn
  1 154 1.11637703E+02 10000 surf-drn
  1 155 1.11558968E+02 10000 surf-drn
  1 156 1.11415192E+02 10000 surf-drn
  1 157 1.10891136E+02 10000 surf-drn
  1 158 1.10934593E+02 10000 surf-drn
  1 159 1.10899811E+02 10000 surf-drn
  1 160 1.14937935E+02 10000 surf-drn
  1 161 1.10245056E+02 10000 surf-drn
  1 162 1.10494781E+02 10000 surf-drn
  1 163 1.10363815E+02 10000 surf-drn
  1 164 1.09987854E+02 10000 surf-drn
  1 165 1.09758583E+02 10000 surf-drn
  1 166 1.09910637E+02 10000 surf-drn
  1 167 1.10200630E+02 10000 surf-drn
  1 168 1.10144135E+02 10000 surf-drn
  1 169 1.09215477E+02 10000 surf-drn
  1 170 1.09829544E+02 10000 surf-drn
  1 171 1.09939224E+02 10000 surf-drn
  1 172 1.09908661E+02 10000 surf-drn
  1 173 1.09379150E+02 10000 surf-drn
  1 174 1.09397614E+02 10000 surf-drn
  1 175 1.09508331E+02 10000 surf-drn
  1 176 1.09734413E+02 10000 surf-drn
  1 177 1.10142639E+02 10000 surf-drn
  1 178 1.10085747E+02 10000 surf-drn
  1 179 1.11865082E+02 10000 surf-drn
  1 180 1.13382721E+02 10000 surf-drn
  1 181 1.13748833E+02 10000 surf-drn
  1 182 1.08550903E+02 10000 surf-drn
  1 183 1.09261513E+02 10000 surf-drn
  1 184 1.13560036E+02 10000 surf-drn
  1 185 1.13705330E+02 10000 surf-drn
  1 186 1.14238091E+02 10000 surf-drn
  1 187 1.13539680E+02 10000 surf-drn
  1 188 1.11219162E+02 10000 surf-drn
  1 189 1.10168617E+02 10000 surf-drn
  1 190 1.11643623E+02 10000 surf-drn
  1 191 1.09800667E+02 10000 surf-drn
  1 192 1.09560455E+02 10000 surf-drn
  1 193 1.09461121E+02 10000 surf-drn
  1 194 1.09457809E+02 10000 surf-drn
  1 195 1.09337814E+02 10000 surf-drn
  1 196 1.09540398E+02 10000 surf-drn
  1 197 1.09183174E+02 10000 surf-drn
  1 198 1.09258644E+02 10000 surf-drn
  1 199 1.09161514E+02 10000 surf-drn
  1 200 1.09188225E+02 10000 surf-drn
  1 201 1.09502380E+02 10000 surf-drn
  1 202 1.11137352E+02 10000 surf-drn
  1 203 1.09851433E+02 10000 surf-drn
  1 204 1.09367615E+02 10000 surf-drn
  1 205 1.09867622E+02 10000 surf-drn
  1 206 1.09393578E+02 10000 surf-drn
  1 207 1.10492188E+02 10000 surf-drn
  1 208 1.09872452E+02 10000 surf-drn
  1 209 1.09134125E+02 10000 surf-drn
  1 210 1.09385841E+02 10000 surf-drn
  1 211 1.09115852E+02 10000 surf-drn
  1 212 1.09153572E+02 10000 surf-drn
  1 213 1.09148125E+02 10000 surf-drn
  1 214 1.09149216E+02 10000 surf-drn
  1 215 1.09199394E+02 10000 surf-drn
  1 216 1.09366402E+02 10000 surf-drn
  1 217 1.09160248E+02 10000 surf-drn
  1 218 1.09524521E+02 10000 surf-drn
  1 219 1.10393646E+02 10000 surf-drn
  1 220 1.10399933E+02 10000 surf-drn
  1 221 1.10327660E+02 10000 surf-drn
  1 222 1.10202919E+02 10000 surf-drn
  1 223 1.10012520E+02 10000 surf-drn
  1 224 1.09455940E+02 10000 surf-drn
  1 225 1.09566612E+02 10000 surf-drn
  1 226 1.10107605E+02 10000 surf-drn
  1 227 1.09384346E+02 10000 surf-drn
  1 228 1.09105995E+02 10000 surf-drn
  1 229 1.08211700E+02 10000 surf-drn
  1 230 1.08116196E+02 10000 surf-drn
  1 231 1.08120102E+02 10000 surf-drn
  1 232 1.08036644E+02 10000 surf-drn
  1 233 1.08039520E+02 10000 surf-drn
  1 234 1.08140244E+02 10000 surf-drn
  1 235 1.08050987E+02 10000 surf-drn
  1 236 1.07913246E+02 10000 surf-drn
  1 237 1.07969101E+02 10000 surf-drn
  1 238 1.08047882E+02 10000 surf-drn
  1 239 1.08212456E+02 10000 surf-drn
  1 240 1.08654007E+02 10000 surf-drn
  1 241 1.08459488E+02 10000 surf-drn
  1 242 1.13551247E+02 10000 surf-drn
  1 243 1.13654587E+02 10000 surf-drn
  1 244 1.13759895E+02 10000 surf-drn
  1 245 1.13763329E+02 10000 surf-drn
  1 246 1.13580544E+02 10000 surf-drn
  1 247 1.13381042E+02 10000 surf-drn
  1 248 1.13358009E+02 10000 surf-drn
  1 249 1.13024689E+02 10000 surf-drn
  1 250 1.13057220E+02 10000 surf-drn
  1 251 1.12539879E+02 10000 surf-drn
  1 252 1.12445595E+02 10000 surf-drn
  1 253 1.12343269E+02 10000 surf-drn
  1 254 1.12286003E+02 10000 surf-drn
  1 255 1.12327217E+02 10000 surf-drn
  1 256 1.12153618E+02 10000 surf-drn
  1 257 1.12050865E+02 10000 surf-drn
  1 258 1.12138565E+02 10000 surf-drn
  1 259 1.12225861E+02 10000 surf-drn
  1 260 1.12237450E+02 10000 surf-drn
  1 261 1.12390480E+02 10000 surf-drn
  1 262 1.12393242E+02 10000 surf-drn
  1 263 1.12615677E+02 10000 surf-drn
  1 264 1.12745415E+02 10000 surf-drn
  1 265 1.12868759E+02 10000 surf-drn
  1 266 1.12784813E+02 10000 surf-drn
  1 267 1.12142258E+02 10000 surf-drn
  1 268 1.11768272E+02 10000 surf-drn
  1 269 1.11759270E+02 10000 surf-drn
  1 270 1.11591255E+02 10000 surf-drn
  1 271 1.11666023E+02 10000 surf-drn
  1 272 1.11637833E+02 10000 surf-drn
  1 273 1.11731773E+02 10000 surf-drn
  1 274 1.11782303E+02 10000 surf-drn
  1 275 1.11297234E+02 10000 surf-drn
  1 276 1.09985565E+02 10000 surf-drn
  1 277 1.10694283E+02 10000 surf-drn
  1 278 1.13231010E+02 10000 surf-drn
  1 279 1.13324661E+02 10000 surf-drn
  1 280 1.10324669E+02 10000 surf-drn
  1 281 1.10694168E+02 10000 surf-drn
  1 282 1.10300323E+02 10000 surf-drn
  1 283 1.10024406E+02 10000 surf-drn
  1 284 1.09873589E+02 10000 surf-drn
  1 285 1.09541489E+02 10000 surf-drn
  1 286 1.09999283E+02 10000 surf-drn
  1 287 1.09942139E+02 10000 surf-drn
  1 288 1.09853889E+02 10000 surf-drn
  1 289 1.09353683E+02 10000 surf-drn
  1 290 1.09704437E+02 10000 surf-drn
  1 291 1.09815857E+02 10000 surf-drn
  1 292 1.09521942E+02 10000 surf-drn
  1 293 1.09335892E+02 10000 surf-drn
  1 294 1.09476494E+02 10000 surf-drn
  1 295 1.09785751E+02 10000 surf-drn
  1 296 1.09727180E+02 10000 surf-drn
  1 297 1.09792122E+02 10000 surf-drn
  1 298 1.09947090E+02 10000 surf-drn
  1 299 1.13804085E+02 10000 surf-drn
  1 300 1.13483658E+02 10000 surf-drn
  1 301 1.10092987E+02 10000 surf-drn
  1 302 1.08659294E+02 10000 surf-drn
  1 303 1.13771713E+02 10000 surf-drn
  1 304 1.12972786E+02 10000 surf-drn
  1 305 1.11781731E+02 10000 surf-drn
  1 306 1.11477463E+02 10000 surf-drn
  1 307 1.10527039E+02 10000 surf-drn
  1 308 1.09383522E+02 10000 surf-drn
  1 309 1.09103035E+02 10000 surf-drn
  1 310 1.09353424E+02 10000 surf-drn
  1 311 1.09075584E+02 10000 surf-drn
  1 312 1.09902237E+02 10000 surf-drn
  1 313 1.09055656E+02 10000 surf-drn
  1 314 1.09032593E+02 10000 surf-drn
  1 315 1.09045235E+02 10000 surf-drn
  1 316 1.09027130E+02 10000 surf-drn
  1 317 1.09114197E+02 10000 surf-drn
  1 318 1.09534218E+02 10000 surf-drn
  1 319 1.09134598E+02 10000 surf-drn
  1 320 1.09393211E+02 10000 surf-drn
  1 321 1.09777046E+02 10000 surf-drn
  1 322 1.09021782E+02 10000 surf-drn
  1 323 1.09009888E+02 10000 surf-drn
  1 324 1.08966766E+02 10000 surf-drn
  1 325 1.09025749E+02 10000 surf-drn
  1 326 1.09179466E+02 10000 surf-drn
  1 327 1.08926598E+02 10000 surf-drn
  1 328 1.08996445E+02 10000 surf-drn
  1 329 1.08909233E+02 10000 surf-drn
  1 330 1.08939568E+02 10000 surf-drn
  1 331 1.09100395E+02 10000 surf-drn
  1 332 1.09405136E+02 10000 surf-drn
  1 333 1.09049095E+02 10000 surf-drn
  1 334 1.09260445E+02 10000 surf-drn
  1 335 1.10076378E+02 10000 surf-drn
  1 336 1.10009995E+02 10000 surf-drn
  1 337 1.09732353E+02 10000 surf-drn
  1 338 1.09725502E+02 10000 surf-drn
  1 339 1.09184944E+02 10000 surf-drn
  1 340 1.08205788E+02 10000 surf-drn
  1 341 1.08009300E+02 10000 surf-drn
  1 342 1.08628410E+02 10000 surf-drn
  1 343 1.09530357E+02 10000 surf-drn
  1 344 1.09694206E+02 10000 surf-drn
  1 345 1.09526703E+02 10000 surf-drn
  1 346 1.09429619E+02 10000 surf-drn
  1 347 1.09036560E+02 10000 surf-drn
  1 348 1.08663406E+02 10000 surf-drn
  1 349 1.08239868E+02 10000 surf-drn
  1 350 1.08097374E+02 10000 surf-drn
  1 351 1.07822136E+02 10000 surf-drn
  1 352 1.07758080E+02 10000 surf-drn
  1 353 1.07825424E+02 10000 surf-drn
  1 354 1.08063438E+02 10000 surf-drn
  1 355 1.08193382E+02 10000 surf-drn
  1 356 1.08524200E+02 10000 surf-drn
  1 357 1.08034515E+02 10000 surf-drn
  1 358 1.13248886E+02 10000 surf-drn
  1 359 1.13436737E+02 10000 surf-drn
  1 360 1.13560204E+02 10000 surf-drn
  1 361 1.13073593E+02 10000 surf-drn
  1 362 1.13357056E+02 10000 surf-drn
  1 363 1.13270645E+02 10000 surf-drn
  1 364 1.12845581E+02 10000 surf-drn
  1 365 1.12810867E+02 10000 surf-drn
  1 366 1.12433624E+02 10000 surf-drn
  1 367 1.12576225E+02 10000 surf-drn
  1 368 1.12197899E+02 10000 surf-drn
  1 369 1.12075584E+02 10000 surf-drn
  1 370 1.12048851E+02 10000 surf-drn
  1 371 1.11973091E+02 10000 surf-drn
  1 372 1.11762108E+02 10000 surf-drn
  1 373 1.11748894E+02 10000 surf-drn
  1 374 1.11982590E+02 10000 surf-drn
  1 375 1.12156563E+02 10000 surf-drn
  1 376 1.12052635E+02 10000 surf-drn
  1 377 1.11747536E+02 10000 surf-drn
  1 378 1.11548798E+02 10000 surf-drn
  1 379 1.11697372E+02 10000 surf-drn
  1 380 1.11847176E+02 10000 surf-drn
  1 381 1.12141739E+02 10000 surf-drn
  1 382 1.12298683E+02 10000 surf-drn
  1 383 1.11910332E+02 10000 surf-drn
  1 384 1.11713066E+02 10000 surf-drn
  1 385 1.11726234E+02 10000 surf-drn
  1 386 1.11753120E+02 10000 surf-drn
  1 387 1.11699272E+02 10000 surf-drn
  1 388 1.11706619E+02 10000 surf-drn
  1 389 1.11453720E+02 10000 surf-drn
  1 390 1.11311951E+02 10000 surf-drn
  1 391 1.10291702E+02 10000 surf-drn
  1 392 1.09564903E+02 10000 surf-drn
  1 393 1.10601990E+02 10000 surf-drn
  1 394 1.15074371E+02 10000 surf-drn
  1 395 1.11571640E+02 10000 surf-drn
  1 396 1.10182861E+02 10000 surf-drn
  1 397 1.10570518E+02 10000 surf-drn
  1 398 1.09736168E+02 10000 surf-drn
  1 399 1.09751404E+02 10000 surf-drn
  1 400 1.09833397E+02 10000 surf-drn
  1 401 1.09988419E+02 10000 surf-drn
  1 402 1.09487251E+02 10000 surf-drn
  1 403 1.09177132E+02 10000 surf-drn
  1 404 1.10045494E+02 10000 surf-drn
  1 405 1.09331360E+02 10000 surf-drn
  1 406 1.08642494E+02 10000 surf-drn
  1 407 1.09693436E+02 10000 surf-drn
  1 408 1.09555313E+02 10000 surf-drn
  1 409 1.09509628E+02 10000 surf-drn
  1 410 1.09836578E+02 10000 surf-drn
  1 411 1.09945435E+02 10000 surf-drn
  1 412 1.09893112E+02 10000 surf-drn
  1 413 1.09785896E+02 10000 surf-drn
  1 414 1.09806374E+02 10000 surf-drn
  1 415 1.12335251E+02 10000 surf-drn
  1 416 1.14725662E+02 10000 surf-drn
  1 417 1.14977539E+02 10000 surf-drn
  1 418 1.10107216E+02 10000 surf-drn
  1 419 1.11244270E+02 10000 surf-drn
  1 420 1.10537743E+02 10000 surf-drn
  1 421 1.11756027E+02 10000 surf-drn
  1 422 1.09465981E+02 10000 surf-drn
  1 423 1.08936317E+02 10000 surf-drn
  1 424 1.08896576E+02 10000 surf-drn
  1 425 1.08922127E+02 10000 surf-drn
  1 426 1.08853935E+02 10000 surf-drn
  1 427 1.08836166E+02 10000 surf-drn
  1 428 1.08942261E+02 10000 surf-drn
  1 429 1.08755562E+02 10000 surf-drn
  1 430 1.08752762E+02 10000 surf-drn
  1 431 1.08707733E+02 10000 surf-drn
  1 432 1.08679115E+02 10000 surf-drn
  1 433 1.08904205E+02 10000 surf-drn
  1 434 1.09118622E+02 10000 surf-drn
  1 435 1.08706421E+02 10000 surf-drn
  1 436 1.08634048E+02 10000 surf-drn
  1 437 1.08770569E+02 10000 surf-drn
  1 438 1.08545395E+02 10000 surf-drn
  1 439 1.08504166E+02 10000 surf-drn
  1 440 1.08484367E+02 10000 surf-drn
  1 441 1.08434044E+02 10000 surf-drn
  1 442 1.08548157E+02 10000 surf-drn
  1 443 1.08438316E+02 10000 surf-drn
  1 444 1.08378738E+02 10000 surf-drn
  1 445 1.08364494E+02 10000 surf-drn
  1 446 1.08269989E+02 10000 surf-drn
  1 447 1.08452042E+02 10000 surf-drn
  1 448 1.08406700E+02 10000 surf-drn
  1 449 1.08319595E+02 10000 surf-drn
  1 450 1.08296875E+02 10000 surf-drn
  1 451 1.08271736E+02 10000 surf-drn
  1 452 1.08262985E+02 10000 surf-drn
  1 453 1.08205414E+02 10000 surf-drn
  1 454 1.09188225E+02 10000 surf-drn
  1 455 1.09255875E+02 10000 surf-drn
  1 456 1.08449867E+02 10000 surf-drn
  1 457 1.08871986E+02 10000 surf-drn
  1 458 1.08665596E+02 10000 surf-drn
  1 459 1.07626999E+02 10000 surf-drn
  1 460 1.07906342E+02 10000 surf-drn
  1 461 1.08189919E+02 10000 surf-drn
  1 462 1.08206009E+02 10000 surf-drn
  1 463 1.08198959E+02 10000 surf-drn
  1 464 1.08113380E+02 10000 surf-drn
  1 465 1.09028503E+02 10000 surf-drn
  1 466 1.08832039E+02 10000 surf-drn
  1 467 1.09144699E+02 10000 surf-drn
  1 468 1.09381027E+02 10000 surf-drn
  1 469 1.09638199E+02 10000 surf-drn
  1 470 1.09076256E+02 10000 surf-drn
  1 471 1.08701897E+02 10000 surf-drn
  1 472 1.08516663E+02 10000 surf-drn
  1 473 1.08946503E+02 10000 surf-drn
  1 474 1.08867149E+02 10000 surf-drn
  1 475 1.08445793E+02 10000 surf-drn
  1 476 1.07701904E+02 10000 surf-drn
  1 477 1.13237244E+02 10000 surf-drn
  1 478 1.13187775E+02 10000 surf-drn
  1 479 1.13292679E+02 10000 surf-drn
  1 480 1.13066704E+02 10000 surf-drn
  1 481 1.13080109E+02 10000 surf-drn
  1 482 1.13082932E+02 10000 surf-drn
  1 483 1.12801773E+02 10000 surf-drn
  1 484 1.12620491E+02 10000 surf-drn
  1 485 1.12144257E+02 10000 surf-drn
  1 486 1.12474098E+02 10000 surf-drn
  1 487 1.12097549E+02 10000 surf-drn
  1 488 1.12020027E+02 10000 surf-drn
  1 489 1.12021751E+02 10000 surf-drn
  1 490 1.11532776E+02 10000 surf-drn
  1 491 1.11077972E+02 10000 surf-drn
  1 492 1.11803291E+02 10000 surf-drn
  1 493 1.12139061E+02 10000 surf-drn
  1 494 1.12182312E+02 10000 surf-drn
  1 495 1.11603027E+02 10000 surf-drn
  1 496 1.11479897E+02 10000 surf-drn
  1 497 1.11293564E+02 10000 surf-drn
  1 498 1.11266220E+02 10000 surf-drn
  1 499 1.11323952E+02 10000 surf-drn
  1 500 1.11386208E+02 10000 surf-drn
  1 501 1.11532959E+02 10000 surf-drn
  1 502 1.11361565E+02 10000 surf-drn
  1 503 1.11306786E+02 10000 surf-drn
  1 504 1.11339951E+02 10000 surf-drn
  1 505 1.11302849E+02 10000 surf-drn
  1 506 1.11328323E+02 10000 surf-drn
  1 507 1.11497597E+02 10000 surf-drn
  1 508 1.11012924E+02 10000 surf-drn
  1 509 1.10895088E+02 10000 surf-drn
  1 510 1.10197540E+02 10000 surf-drn
  1 511 1.09375671E+02 10000 surf-drn
  1 512 1.11846657E+02 10000 surf-drn
  1 513 1.15533981E+02 10000 surf-drn
  1 514 1.10336220E+02 10000 surf-drn
  1 515 1.10005348E+02 10000 surf-drn
  1 516 1.10090454E+02 10000 surf-drn
  1 517 1.10039383E+02 10000 surf-drn
  1 518 1.09779930E+02 10000 surf-drn
  1 519 1.10031067E+02 10000 surf-drn
  1 520 1.10557709E+02 10000 surf-drn
  1 521 1.09533997E+02 10000 surf-drn
  1 522 1.09284378E+02 10000 surf-drn
  1 523 1.09903755E+02 10000 surf-drn
  1 524 1.10001587E+02 10000 surf-drn
  1 525 1.09617348E+02 10000 surf-drn
  1 526 1.09745697E+02 10000 surf-drn
  1 527 1.09709923E+02 10000 surf-drn
  1 528 1.09705544E+02 10000 surf-drn
  1 529 1.09843216E+02 10000 surf-drn
  1 530 1.10025284E+02 10000 surf-drn
  1 531 1.10169609E+02 10000 surf-drn
  1 532 1.10037529E+02 10000 surf-drn
  1 533 1.09841942E+02 10000 surf-drn
  1 534 1.11567924E+02 10000 surf-drn
  1 535 1.14718544E+02 10000 surf-drn
  1 536 1.12773941E+02 10000 surf-drn
  1 537 1.11799332E+02 10000 surf-drn
  1 538 1.11316940E+02 10000 surf-drn
  1 539 1.08685501E+02 10000 surf-drn
  1 540 1.10038101E+02 10000 surf-drn
  1 541 1.08038719E+02 10000 surf-drn
  1 542 1.08368134E+02 10000 surf-drn
  1 543 1.08213104E+02 10000 surf-drn
  1 544 1.08169052E+02 10000 surf-drn
  1 545 1.08165039E+02 10000 surf-drn
  1 546 1.08229660E+02 10000 surf-drn
  1 547 1.08234131E+02 10000 surf-drn
  1 548 1.08240234E+02 10000 surf-drn
  1 549 1.08189499E+02 10000 surf-drn
  1 550 1.08144653E+02 10000 surf-drn
  1 551 1.08275681E+02 10000 surf-drn
  1 552 1.08221077E+02 10000 surf-drn
  1 553 1.08264153E+02 10000 surf-drn
  1 554 1.08253090E+02 10000 surf-drn
  1 555 1.08171997E+02 10000 surf-drn
  1 556 1.08149612E+02 10000 surf-drn
  1 557 1.08168518E+02 10000 surf-drn
  1 558 1.08154984E+02 10000 surf-drn
  1 559 1.07991974E+02 10000 surf-drn
  1 560 1.08213158E+02 10000 surf-drn
  1 561 1.08171875E+02 10000 surf-drn
  1 562 1.08135353E+02 10000 surf-drn
  1 563 1.08166809E+02 10000 surf-drn
  1 564 1.08117012E+02 10000 surf-drn
  1 565 1.08172432E+02 10000 surf-drn
  1 566 1.08169472E+02 10000 surf-drn
  1 567 1.08083771E+02 10000 surf-drn
  1 568 1.08124100E+02 10000 surf-drn
  1 569 1.08076241E+02 10000 surf-drn
  1 570 1.08176003E+02 10000 surf-drn
  1 571 1.08387299E+02 10000 surf-drn
  1 572 1.08181526E+02 10000 surf-drn
  1 573 1.08420944E+02 10000 surf-drn
  1 574 1.08805519E+02 10000 surf-drn
  1 575 1.08199593E+02 10000 surf-drn
  1 576 1.08350800E+02 10000 surf-drn
  1 577 1.08153358E+02 10000 surf-drn
  1 578 1.08197594E+02 10000 surf-drn
  1 579 1.08104843E+02 10000 surf-drn
  1 580 1.08176270E+02 10000 surf-drn
  1 581 1.08390015E+02 10000 surf-drn
  1 582 1.08759171E+02 10000 surf-drn
  1 583 1.08772873E+02 10000 surf-drn
  1 584 1.07517952E+02 10000 surf-drn
  1 585 1.07917984E+02 10000 surf-drn
  1 586 1.08024574E+02 10000 surf-drn
  1 587 1.08168350E+02 10000 surf-drn
  1 588 1.08196678E+02 10000 surf-drn
  1 589 1.08277061E+02 10000 surf-drn
  1 590 1.08515877E+02 10000 surf-drn
  1 591 1.08519859E+02 10000 surf-drn
  1 592 1.08555023E+02 10000 surf-drn
  1 593 1.08282722E+02 10000 surf-drn
  1 594 1.08270325E+02 10000 surf-drn
  1 595 1.08596420E+02 10000 surf-drn
  1 596 1.09033875E+02 10000 surf-drn
  1 597 1.09421844E+02 10000 surf-drn
  1 598 1.09887642E+02 10000 surf-drn
  1 599 1.09767990E+02 10000 surf-drn
  1 600 1.08988503E+02 10000 surf-drn
  1 601 1.08295250E+02 10000 surf-drn
  1 602 1.12712868E+02 10000 surf-drn
  1 603 1.12245331E+02 10000 surf-drn
  1 604 1.12932663E+02 10000 surf-drn
  1 605 1.12963287E+02 10000 surf-drn
  1 606 1.12877876E+02 10000 surf-drn
  1 607 1.12869400E+02 10000 surf-drn
  1 608 1.12572762E+02 10000 surf-drn
  1 609 1.12291107E+02 10000 surf-drn
  1 610 1.12149467E+02 10000 surf-drn
  1 611 1.12076828E+02 10000 surf-drn
  1 612 1.11985374E+02 10000 surf-drn
  1 613 1.11849167E+02 10000 surf-drn
  1 614 1.11605606E+02 10000 surf-drn
  1 615 1.11376137E+02 10000 surf-drn
  1 616 1.11360245E+02 10000 surf-drn
  1 617 1.11425095E+02 10000 surf-drn
  1 618 1.11680931E+02 10000 surf-drn
  1 619 1.11832977E+02 10000 surf-drn
  1 620 1.11634644E+02 10000 surf-drn
  1 621 1.11344398E+02 10000 surf-drn
  1 622 1.11184227E+02 10000 surf-drn
  1 623 1.11186798E+02 10000 surf-drn
  1 624 1.11169052E+02 10000 surf-drn
  1 625 1.11121063E+02 10000 surf-drn
  1 626 1.11393127E+02 10000 surf-drn
  1 627 1.10609459E+02 10000 surf-drn
  1 628 1.10930374E+02 10000 surf-drn
  1 629 1.10680740E+02 10000 surf-drn
  1 630 1.10392097E+02 10000 surf-drn
  1 631 1.10451477E+02 10000 surf-drn
  1 632 1.10155060E+02 10000 surf-drn
  1 633 1.09869087E+02 10000 surf-drn
  1 634 1.09643707E+02 10000 surf-drn
  1 635 1.09694412E+02 10000 surf-drn
  1 636 1.09583160E+02 10000 surf-drn
  1 637 1.13795044E+02 10000 surf-drn
  1 638 1.13528030E+02 10000 surf-drn
  1 639 1.09558113E+02 10000 surf-drn
  1 640 1.09955658E+02 10000 surf-drn
  1 641 1.10109993E+02 10000 surf-drn
  1 642 1.09850632E+02 10000 surf-drn
  1 643 1.09868393E+02 10000 surf-drn
  1 644 1.10653816E+02 10000 surf-drn
  1 645 1.10600761E+02 10000 surf-drn
  1 646 1.09947159E+02 10000 surf-drn
  1 647 1.09746422E+02 10000 surf-drn
  1 648 1.09622009E+02 10000 surf-drn
  1 649 1.09815453E+02 10000 surf-drn
  1 650 1.09901733E+02 10000 surf-drn
  1 651 1.09369759E+02 10000 surf-drn
  1 652 1.09286430E+02 10000 surf-drn
  1 653 1.09892616E+02 10000 surf-drn
  1 654 1.09803322E+02 10000 surf-drn
  1 655 1.10143265E+02 10000 surf-drn
  1 656 1.10150246E+02 10000 surf-drn
  1 657 1.10043190E+02 10000 surf-drn
  1 658 1.10084305E+02 10000 surf-drn
  1 659 1.11082466E+02 10000 surf-drn
  1 660 1.13636597E+02 10000 surf-drn
  1 661 1.12020058E+02 10000 surf-drn
  1 662 1.11589989E+02 10000 surf-drn
  1 663 1.07880547E+02 10000 surf-drn
  1 664 1.07800583E+02 10000 surf-drn
  1 665 1.08091537E+02 10000 surf-drn
  1 666 1.08040230E+02 10000 surf-drn
  1 667 1.08118225E+02 10000 surf-drn
  1 668 1.08049660E+02 10000 surf-drn
  1 669 1.07781036E+02 10000 surf-drn
  1 670 1.08161987E+02 10000 surf-drn
  1 671 1.08136528E+02 10000 surf-drn
  1 672 1.08163284E+02 10000 surf-drn
  1 673 1.08148193E+02 10000 surf-drn
  1 674 1.08076424E+02 10000 surf-drn
  1 675 1.08220337E+02 10000 surf-drn
  1 676 1.08091339E+02 10000 surf-drn
  1 677 1.08168701E+02 10000 surf-drn
  1 678 1.08335724E+02 10000 surf-drn
  1 679 1.08087944E+02 10000 surf-drn
  1 680 1.08156876E+02 10000 surf-drn
  1 681 1.08082581E+02 10000 surf-drn
  1 682 1.08218956E+02 10000 surf-drn
  1 683 1.08278214E+02 10000 surf-drn
  1 684 1.08715981E+02 10000 surf-drn
  1 685 1.08165939E+02 10000 surf-drn
  1 686 1.08246437E+02 10000 surf-drn
  1 687 1.08173416E+02 10000 surf-drn
  1 688 1.08266975E+02 10000 surf-drn
  1 689 1.08287292E+02 10000 surf-drn
  1 690 1.08342422E+02 10000 surf-drn
  1 691 1.08313499E+02 10000 surf-drn
  1 692 1.08412857E+02 10000 surf-drn
  1 693 1.08176956E+02 10000 surf-drn
  1 694 1.08355087E+02 10000 surf-drn
  1 695 1.08241264E+02 10000 surf-drn
  1 696 1.08343605E+02 10000 surf-drn
  1 697 1.08387589E+02 10000 surf-drn
  1 698 1.08431816E+02 10000 surf-drn
  1 699 1.08410057E+02 10000 surf-drn
  1 700 1.08440903E+02 10000 surf-drn
  1 701 1.08476479E+02 10000 surf-drn
  1 702 1.08818367E+02 10000 surf-drn
  1 703 1.08510742E+02 10000 surf-drn
  1 704 1.08669792E+02 10000 surf-drn
  1 705 1.09016060E+02 10000 surf-drn
  1 706 1.08575821E+02 10000 surf-drn
  1 707 1.08944321E+02 10000 surf-drn
  1 708 1.08632874E+02 10000 surf-drn
  1 709 1.07962898E+02 10000 surf-drn
  1 710 1.08142296E+02 10000 surf-drn
  1 711 1.08009903E+02 10000 surf-drn
  1 712 1.07973694E+02 10000 surf-drn
  1 713 1.07893974E+02 10000 surf-drn
  1 714 1.07886078E+02 10000 surf-drn
  1 715 1.07815186E+02 10000 surf-drn
  1 716 1.08475746E+02 10000 surf-drn
  1 717 1.08742867E+02 10000 surf-drn
  1 718 1.08611359E+02 10000 surf-drn
  1 719 1.08050774E+02 10000 surf-drn
  1 720 1.08132362E+02 10000 surf-drn
  1 721 1.07993523E+02 10000 surf-drn
  1 722 1.07598343E+02 10000 surf-drn
  1 723 1.08067200E+02 10000 surf-drn
  1 724 1.08405067E+02 10000 surf-drn
  1 725 1.08927124E+02 10000 surf-drn
  1 726 1.09176102E+02 10000 surf-drn
  1 727 1.12809181E+02 10000 surf-drn
  1 728 1.12156067E+02 10000 surf-drn
  1 729 1.12631828E+02 10000 surf-drn
  1 730 1.12636932E+02 10000 surf-drn
  1 731 1.12541267E+02 10000 surf-drn
  1 732 1.12542397E+02 10000 surf-drn
  1 733 1.12340538E+02 10000 surf-drn
  1 734 1.12124702E+02 10000 surf-drn
  1 735 1.11894539E+02 10000 surf-drn
  1 736 1.11965919E+02 10000 surf-drn
  1 737 1.11800568E+02 10000 surf-drn
  1 738 1.11587189E+02 10000 surf-drn
  1 739 1.11319702E+02 10000 surf-drn
  1 740 1.11128578E+02 10000 surf-drn
  1 741 1.11050056E+02 10000 surf-drn
  1 742 1.11014977E+02 10000 surf-drn
  1 743 1.11014297E+02 10000 surf-drn
  1 744 1.10614685E+02 10000 surf-drn
  1 745 1.10862617E+02 10000 surf-drn
  1 746 1.11094261E+02 10000 surf-drn
  1 747 1.11142662E+02 10000 surf-drn
  1 748 1.11107048E+02 10000 surf-drn
  1 749 1.11045547E+02 10000 surf-drn
  1 750 1.10475052E+02 10000 surf-drn
  1 751 1.10373634E+02 10000 surf-drn
  1 752 1.10322372E+02 10000 surf-drn
  1 753 1.10441071E+02 10000 surf-drn
  1 754 1.10393890E+02 10000 surf-drn
  1 755 1.10275246E+02 10000 surf-drn
  1 756 1.10407379E+02 10000 surf-drn
  1 757 1.10084183E+02 10000 surf-drn
  1 758 1.09390335E+02 10000 surf-drn
  1 759 1.08277039E+02 10000 surf-drn
  1 760 1.08425911E+02 10000 surf-drn
  1 761 1.10290115E+02 10000 surf-drn
  1 762 1.14241196E+02 10000 surf-drn
  1 763 1.11588684E+02 10000 surf-drn
  1 764 1.09563210E+02 10000 surf-drn
  1 765 1.09646942E+02 10000 surf-drn
  1 766 1.09633430E+02 10000 surf-drn
  1 767 1.09339058E+02 10000 surf-drn
  1 768 1.09302010E+02 10000 surf-drn
  1 769 1.09640007E+02 10000 surf-drn
  1 770 1.09527405E+02 10000 surf-drn
  1 771 1.09505669E+02 10000 surf-drn
  1 772 1.09223526E+02 10000 surf-drn
  1 773 1.09593460E+02 10000 surf-drn
  1 774 1.09841606E+02 10000 surf-drn
  1 775 1.09495110E+02 10000 surf-drn
  1 776 1.09575981E+02 10000 surf-drn
  1 777 1.09475540E+02 10000 surf-drn
  1 778 1.09619179E+02 10000 surf-drn
  1 779 1.09482430E+02 10000 surf-drn
  1 780 1.09647003E+02 10000 surf-drn
  1 781 1.09935326E+02 10000 surf-drn
  1 782 1.10375031E+02 10000 surf-drn
  1 783 1.10451279E+02 10000 surf-drn
  1 784 1.10329002E+02 10000 surf-drn
  1 785 1.12341255E+02 10000 surf-drn
  1 786 1.11938927E+02 10000 surf-drn
  1 787 1.10000664E+02 10000 surf-drn