# File generated by Flopy version 3.9.1 on 04/29/2025 at 20:50:43.
BEGIN options
  TIME_UNITS  days
END options

BEGIN dimensions
  NPER  1
END dimensions

BEGIN perioddata
     365.00000000  1       1.00000000
END perioddata

