# File generated by Flopy version 3.8.2 on 06/20/2025 at 15:16:03.
BEGIN options
END options

BEGIN timing
  TDIS6  09_nwt_p03.tdis
END timing

BEGIN models
  gwf6  09_nwt_p03.nam  09_nwt_p03
END models

BEGIN exchanges
END exchanges

BEGIN solutiongroup  1
  ims6  09_nwt_p03.ims  09_nwt_p03
END solutiongroup  1

