# File generated by Flopy version 3.9.1 on 02/21/2025 at 15:02:54.
BEGIN options
  BUDGET  FILEOUT  gwf-p03-mf6.bud
  HEAD  FILEOUT  gwf-p03-mf6.hds
  HEAD  PRINT_FORMAT  COLUMNS  31  WIDTH  15  DIGITS  2  general
END options

BEGIN period  1
  SAVE  head  last
  SAVE  budget  last
  PRINT  head  last
  PRINT  budget  last
END period  1

