# File generated by Flopy version 3.9.1 on 02/21/2025 at 15:02:54.
BEGIN options
  auxiliary  concentration
  PRINT_INPUT
  PRINT_FLOWS
END options

BEGIN dimensions
  MAXBOUND  1
END dimensions

BEGIN period  1
  1 16 16 1.00000000E+00 1.00000000E+03
END period  1

