# File generated by Flopy version 3.9.1 on 02/21/2025 at 15:02:54.
BEGIN options
  SCHEME  upstream
END options

