# File generated by Flopy version 3.9.1 on 02/21/2025 at 15:02:54.
BEGIN options
  BUDGET  FILEOUT  gwt_p03-mf6.cbc
  CONCENTRATION  FILEOUT  gwt_p03-mf6.UCN
  CONCENTRATION  PRINT_FORMAT  COLUMNS  10  WIDTH  15  DIGITS  6  general
END options

BEGIN period  1
  SAVE  concentration  all
  PRINT  concentration  all
END period  1

