# File generated by Flopy version 3.9.1 on 07/01/2025 at 15:14:41.
BEGIN options
END options

BEGIN dimensions
  MAXBOUND  1
END dimensions

BEGIN period  1
  3 1 12 -1.00000000E-22
END period  1

