# File generated by Flopy version 3.9.1 on 06/23/2025 at 13:10:32.
BEGIN options
  BUDGET  FILEOUT  ex-gwf-csub-p01.cbc
  HEAD  FILEOUT  ex-gwf-csub-p01.hds
END options

BEGIN period  1
  SAVE  HEAD  LAST
  SAVE  BUDGET  LAST
  PRINT  BUDGET  LAST
END period  1

