# File generated by Flopy version 3.9.1 on 06/03/2025 at 08:11:33.
BEGIN options
END options

BEGIN griddata
  strt
    CONSTANT     -10.70000000
END griddata

