# File generated by Flopy version 3.9.1 on 07/01/2025 at 15:14:41.
BEGIN options
END options

BEGIN griddata
  strt
    CONSTANT     -10.70000000
END griddata

