# File generated by Flopy version 3.9.1 on 06/03/2025 at 08:11:33.
BEGIN options
  SAVE_FLOWS
  NEWTON
END options

BEGIN packages
  DIS6  ex-gwf-csub-p01.dis  dis
  OBS6  ex-gwf-csub-p01.obs  obs_0
  IC6  ex-gwf-csub-p01.ic  ic
  NPF6  ex-gwf-csub-p01.npf  npf
  STO6  ex-gwf-csub-p01.sto  sto
  CSUB6  ex-gwf-csub-p01.csub  csub
END packages

