# File generated by Flopy version 3.9.1 on 07/01/2025 at 15:14:41.
BEGIN options
  BUDGET  FILEOUT  ex-gwf-csub-p01.cbc
  HEAD  FILEOUT  ex-gwf-csub-p01.hds
END options

BEGIN period  1
  SAVE  HEAD  LAST
  SAVE  BUDGET  LAST
  PRINT  BUDGET  LAST
END period  1

