# File generated by Flopy version 3.9.1 on 06/23/2025 at 13:10:32.
BEGIN options
END options

BEGIN griddata
  strt
    CONSTANT     -10.70000000
END griddata

