# File generated by Flopy version 3.10.0.dev3 on 06/16/2025 at 06:44:22.
BEGIN options
END options

BEGIN dimensions
  MAXBOUND  88
END dimensions

BEGIN period  1
  1 1 4 6.50000000E+01 3.53171006E+04
  1 1 5 6.44444427E+01 4.63777529E+02
  1 2 5 6.22222214E+01 3.56488689E+04
  1 3 5 6.22222214E+01 6.58430698E+03
  1 3 6 5.94444427E+01 2.85528019E+04
  1 3 7 5.66666679E+01 2.62080602E+04
  1 3 8 5.38888893E+01 2.51867920E+04
  1 3 9 5.11111107E+01 2.47044993E+04
  1 3 2 7.05555573E+01 1.57454081E+04
  1 3 3 6.77777786E+01 2.95757994E+04
  1 3 4 6.50000000E+01 2.84832463E+04
  1 3 5 6.22222214E+01 2.89514346E+04
  1 3 6 5.94444427E+01 1.49662103E+03
  1 4 1 7.33333359E+01 3.19877306E+04
  1 4 2 7.11855850E+01 1.49273678E+04
  1 5 9 5.11111107E+01 1.54260264E+04
  1 6 7 5.66666679E+01 2.58845903E+04
  1 6 8 5.38888893E+01 2.68458517E+04
  1 6 9 5.22222214E+01 1.23181562E+04
  1 7 5 6.22222214E+01 2.38537289E+04
  1 7 6 5.94444427E+01 3.07110096E+04
  1 7 7 5.88888893E+01 2.80011806E+03
  1 8 4 6.50000000E+01 1.21088614E+04
  1 8 5 6.38888893E+01 6.72903328E+03
END period  1

