# File generated by Flopy version 3.9.1 on 04/10/2025 at 15:05:26.
BEGIN options
END options

BEGIN timing
  TDIS6  09_nwt_p03.tdis
END timing

BEGIN models
  gwf6  09_nwt_p03.nam  09_nwt_p03
END models

BEGIN exchanges
END exchanges

BEGIN solutiongroup  1
  ims6  09_nwt_p03.ims  09_nwt_p03
END solutiongroup  1

