# LPF package for MODFLOW-2005 generated by Flopy 3.9.1
         0    -1E+30         0  
         0
         0
   1.000000E+00
         0
         0
INTERNAL               1  (40E15.6) -1 #hk layer 1                    
   6.459499E-04   6.414858E-04   6.367682E-04   6.319183E-04   6.270574E-04   6.223067E-04   6.177985E-04   6.136430E-04   6.099616E-04   6.068422E-04   6.043842E-04   6.026867E-04   6.018159E-04   6.018270E-04   6.027859E-04   6.047038E-04   6.076028E-04   6.115047E-04   6.163766E-04   6.222075E-04   6.289533E-04   6.365477E-04   6.449469E-04   6.540514E-04   6.637733E-04   6.740352E-04   6.847270E-04   6.957164E-04   7.069262E-04   7.182022E-04   7.294562E-04   7.405668E-04   7.514239E-04   7.619063E-04   7.719368E-04   7.813941E-04   7.902120E-04   7.983135E-04   8.056214E-04   8.120806E-04
   7.427383E-04   7.474449E-04   7.526144E-04   7.582689E-04   7.644084E-04   7.710550E-04   7.781975E-04   7.858141E-04   7.938825E-04   8.023808E-04   8.112539E-04   8.204798E-04   8.299811E-04   8.397140E-04   8.495901E-04   8.595544E-04   8.695187E-04   8.793949E-04   8.891057E-04   8.985519E-04   9.076564E-04   9.163201E-04   9.244658E-04   9.320161E-04   9.388831E-04   9.449896E-04   9.502914E-04   9.547114E-04   9.582055E-04   9.607407E-04   9.622949E-04   9.628350E-04   9.623500E-04   9.608730E-04   9.583929E-04   9.549539E-04   9.505780E-04   9.453313E-04   9.392689E-04   9.324570E-04
   9.351796E-04   9.394232E-04   9.444605E-04   9.502803E-04   9.568608E-04   9.641797E-04   9.721820E-04   9.808237E-04   9.900494E-04   9.997933E-04   1.009989E-03   1.020549E-03   1.031395E-03   1.042450E-03   1.053616E-03   1.064793E-03   1.075892E-03   1.086827E-03   1.097508E-03   1.107869E-03   1.117679E-03   1.127048E-03   1.135866E-03   1.143912E-03   1.151297E-03   1.157800E-03   1.163532E-03   1.168382E-03   1.172240E-03   1.175216E-03   1.177200E-03   1.178302E-03   1.178412E-03   1.177641E-03   1.175877E-03   1.173342E-03   1.169925E-03   1.165847E-03   1.160997E-03   1.155486E-03
   8.436931E-04   8.413784E-04   8.392841E-04   8.374103E-04   8.358010E-04   8.344452E-04   8.333650E-04   8.325824E-04   8.320974E-04   8.319211E-04   8.320644E-04   8.325273E-04   8.333099E-04   8.344122E-04   8.358230E-04   8.375315E-04   8.395376E-04   8.418082E-04   8.443213E-04   8.470549E-04   8.499869E-04   8.530732E-04   8.562807E-04   8.595765E-04   8.629052E-04   8.662230E-04   8.694967E-04   8.726711E-04   8.757023E-04   8.785351E-04   8.811143E-04   8.834181E-04   8.853690E-04   8.869563E-04   8.881246E-04   8.888411E-04   8.890726E-04   8.887970E-04   8.880034E-04   8.866697E-04
   7.372932E-04   7.320244E-04   7.265903E-04   7.210571E-04   7.154907E-04   7.099464E-04   7.044903E-04   6.991995E-04   6.941292E-04   6.893564E-04   6.849254E-04   6.809022E-04   6.773309E-04   6.742557E-04   6.717205E-04   6.697364E-04   6.683255E-04   6.675099E-04   6.672784E-04   6.676311E-04   6.685460E-04   6.699789E-04   6.719079E-04   6.742887E-04   6.770553E-04   6.801416E-04   6.834815E-04   6.870086E-04   6.906240E-04   6.942504E-04   6.977996E-04   7.011946E-04   7.043360E-04   7.071357E-04   7.095275E-04   7.114234E-04   7.127571E-04   7.134515E-04   7.134625E-04   7.127351E-04
   8.177131E-04   8.289009E-04   8.399455E-04   8.508908E-04   8.617589E-04   8.725720E-04   8.833740E-04   8.941760E-04   9.049780E-04   9.158131E-04   9.266813E-04   9.375605E-04   9.484616E-04   9.593519E-04   9.702090E-04   9.810000E-04   9.916697E-04   1.002174E-03   1.012458E-03   1.022456E-03   1.032089E-03   1.041271E-03   1.049935E-03   1.057981E-03   1.065311E-03   1.071847E-03   1.077480E-03   1.082120E-03   1.085669E-03   1.088050E-03   1.089153E-03   1.088910E-03   1.087235E-03   1.084071E-03   1.079354E-03   1.073027E-03   1.065046E-03   1.055402E-03   1.044060E-03   1.031020E-03
   8.652089E-04   8.764408E-04   8.878821E-04   8.995219E-04   9.113490E-04   9.233525E-04   9.355213E-04   9.478113E-04   9.601786E-04   9.725678E-04   9.849240E-04   9.971589E-04   1.009207E-03   1.020979E-03   1.032365E-03   1.043266E-03   1.053572E-03   1.063172E-03   1.071946E-03   1.079761E-03   1.086507E-03   1.092062E-03   1.096306E-03   1.099106E-03   1.100362E-03   1.099977E-03   1.097827E-03   1.093848E-03   1.087940E-03   1.080037E-03   1.070084E-03   1.058047E-03   1.043872E-03   1.027570E-03   1.009118E-03   9.885504E-04   9.658771E-04   9.411538E-04   9.144353E-04   8.857989E-04
   8.710729E-04   8.714477E-04   8.720759E-04   8.729467E-04   8.740490E-04   8.753496E-04   8.768156E-04   8.784028E-04   8.800782E-04   8.817647E-04   8.834181E-04   8.849392E-04   8.862619E-04   8.872980E-04   8.879703E-04   8.881688E-04   8.878050E-04   8.867799E-04   8.850053E-04   8.823930E-04   8.788327E-04   8.742473E-04   8.685488E-04   8.616707E-04   8.535361E-04   8.441009E-04   8.332989E-04   8.211080E-04   8.074953E-04   7.924386E-04   7.759379E-04   7.580154E-04   7.386709E-04   7.179597E-04   6.959258E-04   6.726133E-04   6.481103E-04   6.224831E-04   5.958197E-04   5.682195E-04
   7.928684E-04   7.912040E-04   7.894845E-04   7.877320E-04   7.859133E-04   7.840284E-04   7.820774E-04   7.800383E-04   7.779109E-04   7.756514E-04   7.732595E-04   7.707133E-04   7.679797E-04   7.650367E-04   7.618512E-04   7.584122E-04   7.546756E-04   7.506193E-04   7.462213E-04   7.414376E-04   7.362571E-04   7.306576E-04   7.246063E-04   7.181030E-04   7.111148E-04   7.036305E-04   6.956613E-04   6.871850E-04   6.782127E-04   6.687444E-04   6.587911E-04   6.483638E-04   6.374847E-04   6.261535E-04   6.144146E-04   6.022789E-04   5.897904E-04   5.769493E-04   5.638215E-04   5.504182E-04
   5.074195E-04   5.048843E-04   5.025806E-04   5.005525E-04   4.988220E-04   4.974221E-04   4.963860E-04   4.957467E-04   4.955372E-04   4.957687E-04   4.964852E-04   4.976977E-04   4.994282E-04   5.016878E-04   5.044765E-04   5.078163E-04   5.117183E-04   5.161493E-04   5.211314E-04   5.266537E-04   5.326830E-04   5.392193E-04   5.462407E-04   5.537029E-04   5.615839E-04   5.698508E-04   5.784704E-04   5.873875E-04   5.965693E-04   6.059494E-04   6.154838E-04   6.251174E-04   6.347842E-04   6.444288E-04   6.539853E-04   6.633765E-04   6.725581E-04   6.814313E-04   6.899516E-04   6.980421E-04
   4.129349E-04   4.026840E-04   3.924661E-04   3.823585E-04   3.724383E-04   3.627937E-04   3.534907E-04   3.446286E-04   3.362846E-04   3.285358E-04   3.214704E-04   3.151655E-04   3.096874E-04   3.051241E-04   3.015307E-04   2.989625E-04   2.974745E-04   2.971218E-04   2.979154E-04   2.999104E-04   3.030959E-04   3.075049E-04   3.131154E-04   3.199273E-04   3.279075E-04   3.370231E-04   3.472409E-04   3.584949E-04   3.707188E-04   3.838465E-04   3.978010E-04   4.124829E-04   4.278042E-04   4.436655E-04   4.599567E-04   4.765676E-04   4.933879E-04   5.102964E-04   5.271938E-04   5.439480E-04
   7.747365E-04   7.676050E-04   7.600325E-04   7.520743E-04   7.437743E-04   7.351989E-04   7.264030E-04   7.174637E-04   7.084253E-04   6.993538E-04   6.903154E-04   6.813651E-04   6.725692E-04   6.639827E-04   6.556607E-04   6.476474E-04   6.400088E-04   6.327560E-04   6.259662E-04   6.196503E-04   6.138305E-04   6.085617E-04   6.038331E-04   5.996776E-04   5.960953E-04   5.930972E-04   5.906723E-04   5.888204E-04   5.875308E-04   5.867923E-04   5.865719E-04   5.868584E-04   5.876190E-04   5.888315E-04   5.904628E-04   5.924689E-04   5.948167E-04   5.974841E-04   6.004161E-04   6.036016E-04
   8.584191E-04   8.758346E-04   8.929304E-04   9.096405E-04   9.258877E-04   9.416057E-04   9.567175E-04   9.711569E-04   9.848579E-04   9.977431E-04   1.009758E-03   1.020813E-03   1.030877E-03   1.039871E-03   1.047741E-03   1.054454E-03   1.059943E-03   1.064187E-03   1.067152E-03   1.068805E-03   1.069136E-03   1.068133E-03   1.065796E-03   1.062125E-03   1.057132E-03   1.050860E-03   1.043310E-03   1.034547E-03   1.024594E-03   1.013505E-03   1.001358E-03   9.881976E-04   9.740889E-04   9.591314E-04   9.433803E-04   9.269238E-04   9.098499E-04   8.922471E-04   8.742033E-04   8.557957E-04
   8.165337E-04   8.399565E-04   8.632138E-04   8.862067E-04   9.088248E-04   9.309690E-04   9.525290E-04   9.734055E-04   9.934885E-04   1.012701E-03   1.030932E-03   1.048105E-03   1.064143E-03   1.078946E-03   1.092448E-03   1.104562E-03   1.115364E-03   1.124623E-03   1.132339E-03   1.138621E-03   1.143251E-03   1.146337E-03   1.147880E-03   1.147880E-03   1.146227E-03   1.143030E-03   1.138401E-03   1.132339E-03   1.124733E-03   1.115915E-03   1.105664E-03   1.094289E-03   1.081734E-03   1.068100E-03   1.053473E-03   1.037953E-03   1.021618E-03   1.004566E-03   9.868860E-04   9.686879E-04
   5.982667E-04   6.152634E-04   6.326127E-04   6.502707E-04   6.681823E-04   6.862811E-04   7.045234E-04   7.228427E-04   7.412061E-04   7.595475E-04   7.778338E-04   7.959878E-04   8.139985E-04   8.317888E-04   8.493366E-04   8.665978E-04   8.835173E-04   9.000730E-04   9.162319E-04   9.319390E-04   9.471831E-04   9.619311E-04   9.761501E-04   9.898180E-04   1.002902E-03   1.015401E-03   1.027294E-03   1.038559E-03   1.049174E-03   1.059149E-03   1.068463E-03   1.077127E-03   1.085129E-03   1.092470E-03   1.099161E-03   1.105223E-03   1.110624E-03   1.115364E-03   1.119553E-03   1.123190E-03
   4.621061E-04   4.786949E-04   4.957797E-04   5.133055E-04   5.312501E-04   5.495694E-04   5.682305E-04   5.871891E-04   6.064234E-04   6.258890E-04   6.455641E-04   6.654046E-04   6.853773E-04   7.054603E-04   7.256093E-04   7.458135E-04   7.660398E-04   7.862439E-04   8.064150E-04   8.265200E-04   8.465258E-04   8.664214E-04   8.861626E-04   9.057276E-04   9.251051E-04   9.442511E-04   9.631436E-04   9.817716E-04   1.000091E-03   1.018091E-03   1.035738E-03   1.053021E-03   1.069896E-03   1.086364E-03   1.102357E-03   1.117899E-03   1.133000E-03   1.147660E-03   1.161658E-03   1.175216E-03
   5.823172E-04   5.930972E-04   6.035464E-04   6.136872E-04   6.234971E-04   6.330095E-04   6.422243E-04   6.511636E-04   6.598603E-04   6.683145E-04   6.765703E-04   6.846498E-04   6.925639E-04   7.003678E-04   7.080726E-04   7.157001E-04   7.233056E-04   7.308891E-04   7.384836E-04   7.461112E-04   7.537938E-04   7.615646E-04   7.694126E-04   7.773598E-04   7.854173E-04   7.935959E-04   8.018959E-04   8.103060E-04   8.188374E-04   8.274790E-04   8.362088E-04   8.450157E-04   8.538999E-04   8.628170E-04   8.717673E-04   8.807175E-04   8.896347E-04   8.984968E-04   9.072707E-04   9.159343E-04
   5.258601E-04   5.189711E-04   5.115970E-04   5.038151E-04   4.957247E-04   4.874027E-04   4.789484E-04   4.704501E-04   4.619959E-04   4.536960E-04   4.456275E-04   4.378897E-04   4.305378E-04   4.236707E-04   4.173549E-04   4.116342E-04   4.065749E-04   4.022210E-04   3.985836E-04   3.956957E-04   3.935794E-04   3.922237E-04   3.916064E-04   3.917276E-04   3.925433E-04   3.940203E-04   3.961035E-04   3.987489E-04   4.018793E-04   4.054286E-04   4.093305E-04   4.135080E-04   4.178839E-04   4.223701E-04   4.269003E-04   4.313865E-04   4.357624E-04   4.399620E-04   4.439080E-04   4.475565E-04
   6.215902E-04   6.120448E-04   6.018931E-04   5.912013E-04   5.800356E-04   5.684730E-04   5.565797E-04   5.444330E-04   5.320988E-04   5.196544E-04   5.071660E-04   4.947106E-04   4.823434E-04   4.701194E-04   4.581049E-04   4.463440E-04   4.348696E-04   4.237259E-04   4.129238E-04   4.024856E-04   3.924221E-04   3.827333E-04   3.734193E-04   3.644580E-04   3.558384E-04   3.475496E-04   3.395362E-04   3.317985E-04   3.242811E-04   3.169512E-04   3.097866E-04   3.027542E-04   2.958211E-04   2.889431E-04   2.821202E-04   2.753193E-04   2.685295E-04   2.617507E-04   2.549828E-04   2.482261E-04
   4.864327E-04   4.881302E-04   4.899709E-04   4.919440E-04   4.940603E-04   4.962978E-04   4.986677E-04   5.011477E-04   5.037380E-04   5.064275E-04   5.091941E-04   5.120048E-04   5.148486E-04   5.176814E-04   5.204921E-04   5.232147E-04   5.258270E-04   5.282740E-04   5.305226E-04   5.325177E-04   5.342041E-04   5.355378E-04   5.364747E-04   5.369707E-04   5.369707E-04   5.364637E-04   5.353945E-04   5.337411E-04   5.314926E-04   5.286157E-04   5.251326E-04   5.210323E-04   5.163256E-04   5.110459E-04   5.052150E-04   4.988771E-04   4.920872E-04   4.849006E-04   4.773722E-04   4.695904E-04
CONSTANT    1.000000E+00                           #vka1                          
