# Name file for MODFLOW-2005, generated by Flopy version 3.9.1.
#xll:0.0; yll:0.0; rotation:0.0; units:meters; lenuni:2; start_datetime:1-1-1970
LIST               2  tutorial01_mf.list
DIS               11  tutorial01_mf.dis
BAS6              13  tutorial01_mf.bas
LPF               15  tutorial01_mf.lpf
OC                14  tutorial01_mf.oc
PCG               27  tutorial01_mf.pcg
DATA(BINARY)      53  tutorial01_mf.cbc REPLACE
DATA(BINARY)      51  tutorial01_mf.hds REPLACE
