# File generated by Flopy version 3.9.1 on 06/21/2025 at 17:08:55.
BEGIN options
END options

BEGIN griddata
  strt
    CONSTANT       7.50000000
END griddata

