# File generated by Flopy version 3.8.2 on 01/20/2025 at 08:20:59.
BEGIN options
  DIGITS  9
END options

BEGIN continuous  FILEOUT  rch.csv
  rch  RCH  rch
END continuous  FILEOUT  rch.csv

