# File generated by Flopy version 3.8.2 on 01/20/2025 at 08:20:56.
BEGIN options
  PRINT_FLOWS
  SAVE_FLOWS
END options

BEGIN packages
  DISV6  sgn.disv  disv
  IC6  sgn.ic  ic
  NPF6  sgn.npf  npf
  RCH6  sgn.rch  rch
  RIV6  sgn.riv  riv_0
  DRN6  sgn.drn  drn_0
  WEL6  sgn.wel  wel_0
  GHB6  sgn.ghb  ghb_0
  OBS6  sgn_4.obs  obs_5
  OC6  sgn.oc  oc
END packages

