MODPATH_TIMESERIES_FILE         7         2
    1   0.0000000000E+00  0.0000000000E+00  0.0000000000E+00  0.0000000000E+00
END HEADER
       0       1  0.0000000000E+00         1    1      1001         3  0.5000000000E+00  0.5000000000E+00  0.5000000000E+00  0.6250000000E+03  0.9875000000E+04  0.2237031471E+02         1
       0       1  0.0000000000E+00         2    1      1002        23  0.5000000000E+00  0.5000000000E+00  0.5000000000E+00  0.6250000000E+03  0.9625000000E+04  0.2253979274E+02         1
       0       1  0.0000000000E+00         3    1      1003        43  0.5000000000E+00  0.5000000000E+00  0.5000000000E+00  0.6250000000E+03  0.9375000000E+04  0.2273631168E+02         1
       0       1  0.0000000000E+00         4    1      1004        63  0.5000000000E+00  0.5000000000E+00  0.5000000000E+00  0.6250000000E+03  0.9125000000E+04  0.2296051072E+02         1
       0       1  0.0000000000E+00         5    1      1005       343  0.5000000000E+00  0.5000000000E+00  0.5000000000E+00  0.6250000000E+03  0.5625000000E+04  0.2261859322E+02         1
       0       1  0.0000000000E+00         6    1      1006       363  0.5000000000E+00  0.5000000000E+00  0.5000000000E+00  0.6250000000E+03  0.5375000000E+04  0.2235274611E+02         1
       0       1  0.0000000000E+00         7    1      1007       383  0.5000000000E+00  0.5000000000E+00  0.5000000000E+00  0.6250000000E+03  0.5125000000E+04  0.2211487932E+02         1
       0       1  0.0000000000E+00         8    1      1008       403  0.5000000000E+00  0.5000000000E+00  0.5000000000E+00  0.6250000000E+03  0.4875000000E+04  0.2188911517E+02         1
       1       1  0.4383500000E+02         1    1      1001         3  0.5042150746E+00  0.5001514035E+00  0.5000000000E+00  0.6260537687E+03  0.9875037851E+04  0.2237031471E+02         1
       1       1  0.4383500000E+02         2    1      1002        23  0.5043037293E+00  0.5004690170E+00  0.5000000000E+00  0.6260759323E+03  0.9625117254E+04  0.2253979274E+02         1
       1       1  0.4383500000E+02         3    1      1003        43  0.5044808372E+00  0.5008328387E+00  0.5000000000E+00  0.6261202093E+03  0.9375208210E+04  0.2273631168E+02         1
       1       1  0.4383500000E+02         4    1      1004        63  0.5047472947E+00  0.5012872383E+00  0.5000000000E+00  0.6261868237E+03  0.9125321810E+04  0.2296051072E+02         1
       1       1  0.4383500000E+02         5    1      1005       343  0.5001235750E+00  0.4931717648E+00  0.5000000000E+00  0.6250308937E+03  0.5623292941E+04  0.2261859322E+02         1
       1       1  0.4383500000E+02         6    1      1006       363  0.5002190947E+00  0.4919063091E+00  0.5000000000E+00  0.6250547737E+03  0.5372976577E+04  0.2235274611E+02         1
       1       1  0.4383500000E+02         7    1      1007       383  0.5004333140E+00  0.4906231129E+00  0.5000000000E+00  0.6251083285E+03  0.5122655778E+04  0.2211487932E+02         1
       1       1  0.4383500000E+02         8    1      1008       403  0.5009169665E+00  0.4893428134E+00  0.5000000000E+00  0.6252292416E+03  0.4872335703E+04  0.2188911517E+02         1
       2       1  0.8767000000E+02         1    1      1001         3  0.5084369608E+00  0.5003027612E+00  0.5000000000E+00  0.6271092402E+03  0.9875075690E+04  0.2237031471E+02         1
       2       1  0.8767000000E+02         2    1      1002        23  0.5086145819E+00  0.5009378814E+00  0.5000000000E+00  0.6271536455E+03  0.9625234470E+04  0.2253979274E+02         1
       2       1  0.8767000000E+02         3    1      1003        43  0.5089694436E+00  0.5016653566E+00  0.5000000000E+00  0.6272423609E+03  0.9375416339E+04  0.2273631168E+02         1
       2       1  0.8767000000E+02         4    1      1004        63  0.5095034333E+00  0.5025738438E+00  0.5000000000E+00  0.6273758583E+03  0.9125643461E+04  0.2296051072E+02         1
       2       1  0.8767000000E+02         5    1      1005       343  0.5002471456E+00  0.4863342712E+00  0.5000000000E+00  0.6250617864E+03  0.5621583568E+04  0.2261859322E+02         1
       2       1  0.8767000000E+02         6    1      1006       363  0.5004381769E+00  0.4838016467E+00  0.5000000000E+00  0.6251095442E+03  0.5370950412E+04  0.2235274611E+02         1
       2       1  0.8767000000E+02         7    1      1007       383  0.5008665911E+00  0.4812334243E+00  0.5000000000E+00  0.6252166478E+03  0.5120308356E+04  0.2211487932E+02         1
       2       1  0.8767000000E+02         8    1      1008       403  0.5018338714E+00  0.4786714385E+00  0.5000000000E+00  0.6254584678E+03  0.4869667860E+04  0.2188911517E+02         1
       3       1  0.1315050000E+03         1    1      1001         3  0.5126656696E+00  0.5004540730E+00  0.5000000000E+00  0.6281664174E+03  0.9875113518E+04  0.2237031471E+02         1
       3       1  0.1315050000E+03         2    1      1002        23  0.5129325697E+00  0.5014065935E+00  0.5000000000E+00  0.6282331424E+03  0.9625351648E+04  0.2253979274E+02         1
       3       1  0.1315050000E+03         3    1      1003        43  0.5134658327E+00  0.5024975540E+00  0.5000000000E+00  0.6283664582E+03  0.9375624389E+04  0.2273631168E+02         1
       3       1  0.1315050000E+03         4    1      1004        63  0.5142684323E+00  0.5038598167E+00  0.5000000000E+00  0.6285671081E+03  0.9125964954E+04  0.2296051072E+02         1
       3       1  0.1315050000E+03         5    1      1005       343  0.5003707117E+00  0.4794875068E+00  0.5000000000E+00  0.6250926779E+03  0.5619871877E+04  0.2261859322E+02         1
       3       1  0.1315050000E+03         6    1      1006       363  0.5006572466E+00  0.4756859979E+00  0.5000000000E+00  0.6251643117E+03  0.5368921499E+04  0.2235274611E+02         1
       3       1  0.1315050000E+03         7    1      1007       383  0.5012998313E+00  0.4718309169E+00  0.5000000000E+00  0.6253249578E+03  0.5117957729E+04  0.2211487932E+02         1
       3       1  0.1315050000E+03         8    1      1008       403  0.5027507147E+00  0.4679858563E+00  0.5000000000E+00  0.6256876787E+03  0.4866996464E+04  0.2188911517E+02         1
       4       1  0.1753400000E+03         1    1      1001         3  0.5169012119E+00  0.5006053390E+00  0.5000000000E+00  0.6292253030E+03  0.9875151335E+04  0.2237031471E+02         1
       4       1  0.1753400000E+03         2    1      1002        23  0.5172577044E+00  0.5018751530E+00  0.5000000000E+00  0.6293144261E+03  0.9625468788E+04  0.2253979274E+02         1
       4       1  0.1753400000E+03         3    1      1003        43  0.5179700180E+00  0.5033294310E+00  0.5000000000E+00  0.6294925045E+03  0.9375832358E+04  0.2273631168E+02         1
       4       1  0.1753400000E+03         4    1      1004        63  0.5190423082E+00  0.5051451574E+00  0.5000000000E+00  0.6297605770E+03  0.9126286289E+04  0.2296051072E+02         1
       4       1  0.1753400000E+03         5    1      1005       343  0.5004942735E+00  0.4726314588E+00  0.5000000000E+00  0.6251235684E+03  0.5618157865E+04  0.2261859322E+02         1
       4       1  0.1753400000E+03         6    1      1006       363  0.5008763037E+00  0.4675593480E+00  0.5000000000E+00  0.6252190759E+03  0.5366889837E+04  0.2235274611E+02         1
       4       1  0.1753400000E+03         7    1      1007       383  0.5017330345E+00  0.4624155732E+00  0.5000000000E+00  0.6254332586E+03  0.5115603893E+04  0.2211487932E+02         1
       4       1  0.1753400000E+03         8    1      1008       403  0.5036674965E+00  0.4572860480E+00  0.5000000000E+00  0.6259168741E+03  0.4864321512E+04  0.2188911517E+02         1
       5       1  0.2191750000E+03         1    1      1001         3  0.5211435989E+00  0.5007565592E+00  0.5000000000E+00  0.6302858997E+03  0.9875189140E+04  0.2237031471E+02         1
       5       1  0.2191750000E+03         2    1      1002        23  0.5215899979E+00  0.5023435603E+00  0.5000000000E+00  0.6303974995E+03  0.9625585890E+04  0.2253979274E+02         1
       5       1  0.2191750000E+03         3    1      1003        43  0.5224820130E+00  0.5041609876E+00  0.5000000000E+00  0.6306205033E+03  0.9376040247E+04  0.2273631168E+02         1
       5       1  0.2191750000E+03         4    1      1004        63  0.5238250775E+00  0.5064298661E+00  0.5000000000E+00  0.6309562694E+03  0.9126607467E+04  0.2296051072E+02         1
       5       1  0.2191750000E+03         5    1      1005       343  0.5006178308E+00  0.4657661147E+00  0.5000000000E+00  0.6251544577E+03  0.5616441529E+04  0.2261859322E+02         1
       5       1  0.2191750000E+03         6    1      1006       363  0.5010953483E+00  0.4594216819E+00  0.5000000000E+00  0.6252738371E+03  0.5364855420E+04  0.2235274611E+02         1
       5       1  0.2191750000E+03         7    1      1007       383  0.5021662009E+00  0.4529873755E+00  0.5000000000E+00  0.6255415502E+03  0.5113246844E+04  0.2211487932E+02         1
       5       1  0.2191750000E+03         8    1      1008       403  0.5045842167E+00  0.4465719945E+00  0.5000000000E+00  0.6261460542E+03  0.4861642999E+04  0.2188911517E+02         1
       6       1  0.2630100000E+03         1    1      1001         3  0.5253928416E+00  0.5009077336E+00  0.5000000000E+00  0.6313482104E+03  0.9875226933E+04  0.2237031471E+02         1
       6       1  0.2630100000E+03         2    1      1002        23  0.5259294620E+00  0.5028118152E+00  0.5000000000E+00  0.6314823655E+03  0.9625702954E+04  0.2253979274E+02         1
       6       1  0.2630100000E+03         3    1      1003        43  0.5270018312E+00  0.5049922240E+00  0.5000000000E+00  0.6317504578E+03  0.9376248056E+04  0.2273631168E+02         1
       6       1  0.2630100000E+03         4    1      1004        63  0.5286167568E+00  0.5077139432E+00  0.5000000000E+00  0.6321541892E+03  0.9126928486E+04  0.2296051072E+02         1
       6       1  0.2630100000E+03         5    1      1005       343  0.5007413836E+00  0.4588914620E+00  0.5000000000E+00  0.6251853459E+03  0.5614722865E+04  0.2261859322E+02         1
       6       1  0.2630100000E+03         6    1      1006       363  0.5013143804E+00  0.4512729847E+00  0.5000000000E+00  0.6253285951E+03  0.5362818246E+04  0.2235274611E+02         1
       6       1  0.2630100000E+03         7    1      1007       383  0.5025993303E+00  0.4435463064E+00  0.5000000000E+00  0.6256498326E+03  0.5110886577E+04  0.2211487932E+02         1
       6       1  0.2630100000E+03         8    1      1008       403  0.5055008754E+00  0.4358436769E+00  0.5000000000E+00  0.6263752188E+03  0.4858960919E+04  0.2188911517E+02         1
       7       1  0.3068450000E+03         1    1      1001         3  0.5296489511E+00  0.5010588622E+00  0.5000000000E+00  0.6324122378E+03  0.9875264716E+04  0.2237031471E+02         1
       7       1  0.3068450000E+03         2    1      1002        23  0.5302761087E+00  0.5032799178E+00  0.5000000000E+00  0.6325690272E+03  0.9625819979E+04  0.2253979274E+02         1
       7       1  0.3068450000E+03         3    1      1003        43  0.5315294863E+00  0.5058231403E+00  0.5000000000E+00  0.6328823716E+03  0.9376455785E+04  0.2273631168E+02         1
       7       1  0.3068450000E+03         4    1      1004        63  0.5334173627E+00  0.5089973890E+00  0.5000000000E+00  0.6333543407E+03  0.9127249347E+04  0.2296051072E+02         1
       7       1  0.3068450000E+03         5    1      1005       343  0.5008649321E+00  0.4520074880E+00  0.5000000000E+00  0.6252162330E+03  0.5613001872E+04  0.2261859322E+02         1
       7       1  0.3068450000E+03         6    1      1006       363  0.5015333999E+00  0.4431132416E+00  0.5000000000E+00  0.6253833500E+03  0.5360778310E+04  0.2235274611E+02         1
       7       1  0.3068450000E+03         7    1      1007       383  0.5030324228E+00  0.4340923483E+00  0.5000000000E+00  0.6257581057E+03  0.5108523087E+04  0.2211487932E+02         1
       7       1  0.3068450000E+03         8    1      1008       403  0.5064174725E+00  0.4251010763E+00  0.5000000000E+00  0.6266043681E+03  0.4856275269E+04  0.2188911517E+02         1
       8       1  0.3506800000E+03         1    1      1001         3  0.5339119384E+00  0.5012099451E+00  0.5000000000E+00  0.6334779846E+03  0.9875302486E+04  0.2237031471E+02         1
       8       1  0.3506800000E+03         2    1      1002        23  0.5346299497E+00  0.5037478682E+00  0.5000000000E+00  0.6336574874E+03  0.9625936967E+04  0.2253979274E+02         1
       8       1  0.3506800000E+03         3    1      1003        43  0.5360649917E+00  0.5066537366E+00  0.5000000000E+00  0.6340162479E+03  0.9376663434E+04  0.2273631168E+02         1
       8       1  0.3506800000E+03         4    1      1004        63  0.5382269118E+00  0.5102802037E+00  0.5000000000E+00  0.6345567279E+03  0.9127570051E+04  0.2296051072E+02         1
       8       1  0.3506800000E+03         5    1      1005       343  0.5009884762E+00  0.4451141800E+00  0.5000000000E+00  0.6252471190E+03  0.5611278545E+04  0.2261859322E+02         1
       8       1  0.3506800000E+03         6    1      1006       363  0.5017524070E+00  0.4349424374E+00  0.5000000000E+00  0.6254381017E+03  0.5358735609E+04  0.2235274611E+02         1
       8       1  0.3506800000E+03         7    1      1007       383  0.5034654784E+00  0.4246254836E+00  0.5000000000E+00  0.6258663696E+03  0.5106156371E+04  0.2211487932E+02         1
       8       1  0.3506800000E+03         8    1      1008       403  0.5073340080E+00  0.4143441736E+00  0.5000000000E+00  0.6268335020E+03  0.4853586043E+04  0.2188911517E+02         1
       9       1  0.3945150000E+03         1    1      1001         3  0.5381818148E+00  0.5013609822E+00  0.5000000000E+00  0.6345454537E+03  0.9875340246E+04  0.2237031471E+02         1
       9       1  0.3945150000E+03         2    1      1002        23  0.5389909970E+00  0.5042156665E+00  0.5000000000E+00  0.6347477492E+03  0.9626053917E+04  0.2253979274E+02         1
       9       1  0.3945150000E+03         3    1      1003        43  0.5406083611E+00  0.5074840132E+00  0.5000000000E+00  0.6351520903E+03  0.9376871003E+04  0.2273631168E+02         1
       9       1  0.3945150000E+03         4    1      1004        63  0.5430454208E+00  0.5115623878E+00  0.5000000000E+00  0.6357613552E+03  0.9127890597E+04  0.2296051072E+02         1
       9       1  0.3945150000E+03         5    1      1005       343  0.5011120158E+00  0.4382115254E+00  0.5000000000E+00  0.6252780039E+03  0.5609552881E+04  0.2261859322E+02         1
       9       1  0.3945150000E+03         6    1      1006       363  0.5019714014E+00  0.4267605572E+00  0.5000000000E+00  0.6254928504E+03  0.5356690139E+04  0.2235274611E+02         1
       9       1  0.3945150000E+03         7    1      1007       383  0.5038984971E+00  0.4151456946E+00  0.5000000000E+00  0.6259746243E+03  0.5103786424E+04  0.2211487932E+02         1
       9       1  0.3945150000E+03         8    1      1008       403  0.5082504821E+00  0.4035729498E+00  0.5000000000E+00  0.6270626205E+03  0.4850893237E+04  0.2188911517E+02         1
      10       1  0.4383500000E+03         1    1      1001         3  0.5424585912E+00  0.5015119736E+00  0.5000000000E+00  0.6356146478E+03  0.9875377993E+04  0.2237031471E+02         1
      10       1  0.4383500000E+03         2    1      1002        23  0.5433592625E+00  0.5046833126E+00  0.5000000000E+00  0.6358398156E+03  0.9626170828E+04  0.2253979274E+02         1
      10       1  0.4383500000E+03         3    1      1003        43  0.5451596082E+00  0.5083139700E+00  0.5000000000E+00  0.6362899021E+03  0.9377078492E+04  0.2273631168E+02         1
      10       1  0.4383500000E+03         4    1      1004        63  0.5478729063E+00  0.5128439415E+00  0.5000000000E+00  0.6369682266E+03  0.9128210985E+04  0.2296051072E+02         1
      10       1  0.4383500000E+03         5    1      1005       343  0.5012355510E+00  0.4312995115E+00  0.5000000000E+00  0.6253088877E+03  0.5607824878E+04  0.2261859322E+02         1
      10       1  0.4383500000E+03         6    1      1006       363  0.5021903834E+00  0.4185675861E+00  0.5000000000E+00  0.6255475958E+03  0.5354641897E+04  0.2235274611E+02         1
      10       1  0.4383500000E+03         7    1      1007       383  0.5043314789E+00  0.4056529638E+00  0.5000000000E+00  0.6260828697E+03  0.5101413241E+04  0.2211487932E+02         1
      10       1  0.4383500000E+03         8    1      1008       403  0.5091668945E+00  0.3927873858E+00  0.5000000000E+00  0.6272917236E+03  0.4848196846E+04  0.2188911517E+02         1
      11       1  0.4821850000E+03         1    1      1001         3  0.5467422789E+00  0.5016629193E+00  0.5000000000E+00  0.6366855697E+03  0.9875415730E+04  0.2237031471E+02         1
      11       1  0.4821850000E+03         2    1      1002        23  0.5477347582E+00  0.5051508067E+00  0.5000000000E+00  0.6369336895E+03  0.9626287702E+04  0.2253979274E+02         1
      11       1  0.4821850000E+03         3    1      1003        43  0.5497187466E+00  0.5091436072E+00  0.5000000000E+00  0.6374296866E+03  0.9377285902E+04  0.2273631168E+02         1
      11       1  0.4821850000E+03         4    1      1004        63  0.5527093852E+00  0.5141248651E+00  0.5000000000E+00  0.6381773463E+03  0.9128531216E+04  0.2296051072E+02         1
      11       1  0.4821850000E+03         5    1      1005       343  0.5013590818E+00  0.4243781257E+00  0.5000000000E+00  0.6253397704E+03  0.5606094531E+04  0.2261859322E+02         1
      11       1  0.4821850000E+03         6    1      1006       363  0.5024093528E+00  0.4103635089E+00  0.5000000000E+00  0.6256023382E+03  0.5352590877E+04  0.2235274611E+02         1
      11       1  0.4821850000E+03         7    1      1007       383  0.5047644238E+00  0.3961472734E+00  0.5000000000E+00  0.6261911059E+03  0.5099036818E+04  0.2211487932E+02         1
      11       1  0.4821850000E+03         8    1      1008       403  0.5100832455E+00  0.3819874625E+00  0.5000000000E+00  0.6275208114E+03  0.4845496866E+04  0.2188911517E+02         1
      12       1  0.5260200000E+03         1    1      1001         3  0.5510328891E+00  0.5018138192E+00  0.5000000000E+00  0.6377582223E+03  0.9875453455E+04  0.2237031471E+02         1
      12       1  0.5260200000E+03         2    1      1002        23  0.5521174960E+00  0.5056181487E+00  0.5000000000E+00  0.6380293740E+03  0.9626404537E+04  0.2253979274E+02         1
      12       1  0.5260200000E+03         3    1      1003        43  0.5542857899E+00  0.5099729250E+00  0.5000000000E+00  0.6385714475E+03  0.9377493231E+04  0.2273631168E+02         1
      12       1  0.5260200000E+03         4    1      1004        63  0.5575548741E+00  0.5154051590E+00  0.5000000000E+00  0.6393887185E+03  0.9128851290E+04  0.2296051072E+02         1
      12       1  0.5260200000E+03         5    1      1005       343  0.5014826081E+00  0.4174473552E+00  0.5000000000E+00  0.6253706520E+03  0.5604361839E+04  0.2261859322E+02         1
      12       1  0.5260200000E+03         6    1      1006       363  0.5026283097E+00  0.4021483106E+00  0.5000000000E+00  0.6256570774E+03  0.5350537078E+04  0.2235274611E+02         1
      12       1  0.5260200000E+03         7    1      1007       383  0.5051973318E+00  0.3866286058E+00  0.5000000000E+00  0.6262993329E+03  0.5096657151E+04  0.2211487932E+02         1
      12       1  0.5260200000E+03         8    1      1008       403  0.5109995349E+00  0.3711731608E+00  0.5000000000E+00  0.6277498837E+03  0.4842793290E+04  0.2188911517E+02         1
      13       1  0.5698550000E+03         1    1      1001         3  0.5553304329E+00  0.5019646735E+00  0.5000000000E+00  0.6388326082E+03  0.9875491168E+04  0.2237031471E+02         1
      13       1  0.5698550000E+03         2    1      1002        23  0.5565074879E+00  0.5060853388E+00  0.5000000000E+00  0.6391268720E+03  0.9626521335E+04  0.2253979274E+02         1
      13       1  0.5698550000E+03         3    1      1003        43  0.5588607520E+00  0.5108019234E+00  0.5000000000E+00  0.6397151880E+03  0.9377700481E+04  0.2273631168E+02         1
      13       1  0.5698550000E+03         4    1      1004        63  0.5624093899E+00  0.5166848234E+00  0.5000000000E+00  0.6406023475E+03  0.9129171206E+04  0.2296051072E+02         1
      13       1  0.5698550000E+03         5    1      1005       343  0.5016061301E+00  0.4105071873E+00  0.5000000000E+00  0.6254015325E+03  0.5602626797E+04  0.2261859322E+02         1
      13       1  0.5698550000E+03         6    1      1006       363  0.5028472540E+00  0.3939219761E+00  0.5000000000E+00  0.6257118135E+03  0.5348480494E+04  0.2235274611E+02         1
      13       1  0.5698550000E+03         7    1      1007       383  0.5056302029E+00  0.3770969433E+00  0.5000000000E+00  0.6264075507E+03  0.5094274236E+04  0.2211487932E+02         1
      13       1  0.5698550000E+03         8    1      1008       403  0.5119157627E+00  0.3603444615E+00  0.5000000000E+00  0.6279789407E+03  0.4840086115E+04  0.2188911517E+02         1
      14       1  0.6136900000E+03         1    1      1001         3  0.5596349215E+00  0.5021154821E+00  0.5000000000E+00  0.6399087304E+03  0.9875528871E+04  0.2237031471E+02         1
      14       1  0.6136900000E+03         2    1      1002        23  0.5609047460E+00  0.5065523770E+00  0.5000000000E+00  0.6402261865E+03  0.9626638094E+04  0.2253979274E+02         1
      14       1  0.6136900000E+03         3    1      1003        43  0.5634436464E+00  0.5116306026E+00  0.5000000000E+00  0.6408609116E+03  0.9377907651E+04  0.2273631168E+02         1
      14       1  0.6136900000E+03         4    1      1004        63  0.5672729493E+00  0.5179638586E+00  0.5000000000E+00  0.6418182373E+03  0.9129490965E+04  0.2296051072E+02         1
      14       1  0.6136900000E+03         5    1      1005       343  0.5017296476E+00  0.4035576093E+00  0.5000000000E+00  0.6254324119E+03  0.5600889402E+04  0.2261859322E+02         1
      14       1  0.6136900000E+03         6    1      1006       363  0.5030661859E+00  0.3856844904E+00  0.5000000000E+00  0.6257665465E+03  0.5346421123E+04  0.2235274611E+02         1
      14       1  0.6136900000E+03         7    1      1007       383  0.5060630371E+00  0.3675522680E+00  0.5000000000E+00  0.6265157593E+03  0.5091888067E+04  0.2211487932E+02         1
      14       1  0.6136900000E+03         8    1      1008       403  0.5128319291E+00  0.3495013456E+00  0.5000000000E+00  0.6282079823E+03  0.4837375336E+04  0.2188911517E+02         1
      15       1  0.6575250000E+03         1    1      1001         3  0.5639463662E+00  0.5022662450E+00  0.5000000000E+00  0.6409865915E+03  0.9875566561E+04  0.2237031471E+02         1
      15       1  0.6575250000E+03         2    1      1002        23  0.5653092822E+00  0.5070192633E+00  0.5000000000E+00  0.6413273206E+03  0.9626754816E+04  0.2253979274E+02         1
      15       1  0.6575250000E+03         3    1      1003        43  0.5680344870E+00  0.5124589627E+00  0.5000000000E+00  0.6420086218E+03  0.9378114741E+04  0.2273631168E+02         1
      15       1  0.6575250000E+03         4    1      1004        63  0.5721455692E+00  0.5192422650E+00  0.5000000000E+00  0.6430363923E+03  0.9129810566E+04  0.2296051072E+02         1
      15       1  0.6575250000E+03         5    1      1005       343  0.5018531607E+00  0.3965986084E+00  0.5000000000E+00  0.6254632902E+03  0.5599149652E+04  0.2261859322E+02         1
      15       1  0.6575250000E+03         6    1      1006       363  0.5032851052E+00  0.3774358383E+00  0.5000000000E+00  0.6258212763E+03  0.5344358960E+04  0.2235274611E+02         1
      15       1  0.6575250000E+03         7    1      1007       383  0.5064958345E+00  0.3579945623E+00  0.5000000000E+00  0.6266239586E+03  0.5089498641E+04  0.2211487932E+02         1
      15       1  0.6575250000E+03         8    1      1008       403  0.5137480339E+00  0.3386437937E+00  0.5000000000E+00  0.6284370085E+03  0.4834660948E+04  0.2188911517E+02         1
      16       1  0.7013600000E+03         1    1      1001         3  0.5682647782E+00  0.5024169622E+00  0.5000000000E+00  0.6420661945E+03  0.9875604241E+04  0.2237031471E+02         1
      16       1  0.7013600000E+03         2    1      1002        23  0.5697211087E+00  0.5074859977E+00  0.5000000000E+00  0.6424302772E+03  0.9626871499E+04  0.2253979274E+02         1
      16       1  0.7013600000E+03         3    1      1003        43  0.5726332876E+00  0.5132870038E+00  0.5000000000E+00  0.6431583219E+03  0.9378321751E+04  0.2273631168E+02         1
      16       1  0.7013600000E+03         4    1      1004        63  0.5770272665E+00  0.5205200429E+00  0.5000000000E+00  0.6442568166E+03  0.9130130011E+04  0.2296051072E+02         1
      16       1  0.7013600000E+03         5    1      1005       343  0.5019766694E+00  0.3896301718E+00  0.5000000000E+00  0.6254941674E+03  0.5597407543E+04  0.2261859322E+02         1
      16       1  0.7013600000E+03         6    1      1006       363  0.5035040120E+00  0.3691760047E+00  0.5000000000E+00  0.6258760030E+03  0.5342294001E+04  0.2235274611E+02         1
      16       1  0.7013600000E+03         7    1      1007       383  0.5069285949E+00  0.3484238083E+00  0.5000000000E+00  0.6267321487E+03  0.5087105952E+04  0.2211487932E+02         1
      16       1  0.7013600000E+03         8    1      1008       403  0.5146640772E+00  0.3277717867E+00  0.5000000000E+00  0.6286660193E+03  0.4831942947E+04  0.2188911517E+02         1
      17       1  0.7451950000E+03         1    1      1001         3  0.5725901687E+00  0.5025676339E+00  0.5000000000E+00  0.6431475422E+03  0.9875641908E+04  0.2237031471E+02         1
      17       1  0.7451950000E+03         2    1      1002        23  0.5741402374E+00  0.5079525804E+00  0.5000000000E+00  0.6435350593E+03  0.9626988145E+04  0.2253979274E+02         1
      17       1  0.7451950000E+03         3    1      1003        43  0.5772400619E+00  0.5141147260E+00  0.5000000000E+00  0.6443100155E+03  0.9378528682E+04  0.2273631168E+02         1
      17       1  0.7451950000E+03         4    1      1004        63  0.5819180581E+00  0.5217971926E+00  0.5000000000E+00  0.6454795145E+03  0.9130449298E+04  0.2296051072E+02         1
      17       1  0.7451950000E+03         5    1      1005       343  0.5021001737E+00  0.3826522868E+00  0.5000000000E+00  0.6255250434E+03  0.5595663072E+04  0.2261859322E+02         1
      17       1  0.7451950000E+03         6    1      1006       363  0.5037229062E+00  0.3609049744E+00  0.5000000000E+00  0.6259307266E+03  0.5340226244E+04  0.2235274611E+02         1
      17       1  0.7451950000E+03         7    1      1007       383  0.5073613185E+00  0.3388399883E+00  0.5000000000E+00  0.6268403296E+03  0.5084709997E+04  0.2211487932E+02         1
      17       1  0.7451950000E+03         8    1      1008       403  0.5155800591E+00  0.3168853054E+00  0.5000000000E+00  0.6288950148E+03  0.4829221326E+04  0.2188911517E+02         1
      18       1  0.7890300000E+03         1    1      1001         3  0.5769225490E+00  0.5027182599E+00  0.5000000000E+00  0.6442306373E+03  0.9875679565E+04  0.2237031471E+02         1
      18       1  0.7890300000E+03         2    1      1002        23  0.5785666804E+00  0.5084190114E+00  0.5000000000E+00  0.6446416701E+03  0.9627104753E+04  0.2253979274E+02         1
      18       1  0.7890300000E+03         3    1      1003        43  0.5818548238E+00  0.5149421296E+00  0.5000000000E+00  0.6454637060E+03  0.9378735532E+04  0.2273631168E+02         1
      18       1  0.7890300000E+03         4    1      1004        63  0.5868179609E+00  0.5230737143E+00  0.5000000000E+00  0.6467044902E+03  0.9130768429E+04  0.2296051072E+02         1
      18       1  0.7890300000E+03         5    1      1005       343  0.5022236735E+00  0.3756649405E+00  0.5000000000E+00  0.6255559184E+03  0.5593916235E+04  0.2261859322E+02         1
      18       1  0.7890300000E+03         6    1      1006       363  0.5039417880E+00  0.3526227323E+00  0.5000000000E+00  0.6259854470E+03  0.5338155683E+04  0.2235274611E+02         1
      18       1  0.7890300000E+03         7    1      1007       383  0.5077940052E+00  0.3292430844E+00  0.5000000000E+00  0.6269485013E+03  0.5082310771E+04  0.2211487932E+02         1
      18       1  0.7890300000E+03         8    1      1008       403  0.5164959794E+00  0.3059843304E+00  0.5000000000E+00  0.6291239948E+03  0.4826496083E+04  0.2188911517E+02         1
      19       1  0.8328650000E+03         1    1      1001         3  0.5812619305E+00  0.5028688403E+00  0.5000000000E+00  0.6453154826E+03  0.9875717210E+04  0.2237031471E+02         1
      19       1  0.8328650000E+03         2    1      1002        23  0.5830004499E+00  0.5088852907E+00  0.5000000000E+00  0.6457501125E+03  0.9627221323E+04  0.2253979274E+02         1
      19       1  0.8328650000E+03         3    1      1003        43  0.5864775871E+00  0.5157692145E+00  0.5000000000E+00  0.6466193968E+03  0.9378942304E+04  0.2273631168E+02         1
      19       1  0.8328650000E+03         4    1      1004        63  0.5917269919E+00  0.5243496085E+00  0.5000000000E+00  0.6479317480E+03  0.9131087402E+04  0.2296051072E+02         1
      19       1  0.8328650000E+03         5    1      1005       343  0.5023471690E+00  0.3686681200E+00  0.5000000000E+00  0.6255867922E+03  0.5592167030E+04  0.2261859322E+02         1
      19       1  0.8328650000E+03         6    1      1006       363  0.5041606572E+00  0.3443292631E+00  0.5000000000E+00  0.6260401643E+03  0.5336082316E+04  0.2235274611E+02         1