# File generated by Flopy version 3.8.2 on 06/07/2025 at 12:57:50.
BEGIN options
  PRINT_OPTION  summary
  COMPLEXITY  complex
END options

