# MPSIM package for MODPATH 7 generated by Flopy 3.8.2
freyberg_mf6_mp.mpnam
freyberg_mf6_mp.mplst
4 1 1 1 1 0
freyberg_mf6_mp.mpend
freyberg_mf6_mp.mppth
freyberg_mf6_mp.timeseries
0
1
0
2
1
100 43.835
2
-1
CONSTANT          0                                #zones layer 1                 
1
1
PG1
1
0.0
EXTERNAL Track_new
