
MODPATH Version 7.2.001   
Program compiled Jun 21 2024 03:01:44 with IFORT compiler (ver. 20.21.7)        
 
This software has been approved for release by the U.S. Geological
Survey (USGS). Although the software has been subjected to rigorous
review, the USGS reserves the right to update the software as needed
pursuant to further analysis and review. No warranty, expressed or
implied, is made by the USGS or the U.S. Government as to the
functionality of the software and related material nor shall the
fact of release constitute any such warranty. Furthermore, the
software is released on condition that neither the USGS nor the U.S.
Government shall be held liable for any damages resulting from its
authorized or unauthorized use. Also refer to the USGS Water
Resources Software User Rights Notice for complete use, copyright,
and distribution information.
 

MODPATH name file data
----------------------
   MPBAS File: freyberg_mf6_mp.mpbas
  GRBDIS File: .\freyberg6.dis.grb
    TDIS File: .\freyberg6.tdis
    HEAD File: .\freyberg6_freyberg.hds
  BUDGET File: .\freyberg6_freyberg.cbc

Grid data
---------
Grid file type: MODFLOW-6 DIS binary grid file.
Time discretization file type: MODFLOW-6 time discretization file.
 # File generated by Flopy version 3.8.2 on 06/07/2025 at 12:57:50.
 
 Time discretization file data
 -----------------------------
 Stress period count =         25
 Period length:     3652.50000 Time step count:         1 Time step multiplier:        1.00000
 Period length:       31.00000 Time step count:         1 Time step multiplier:        1.00000
 Period length:       29.00000 Time step count:         1 Time step multiplier:        1.00000
 Period length:       31.00000 Time step count:         1 Time step multiplier:        1.00000
 Period length:       30.00000 Time step count:         1 Time step multiplier:        1.00000
 Period length:       31.00000 Time step count:         1 Time step multiplier:        1.00000
 Period length:       30.00000 Time step count:         1 Time step multiplier:        1.00000
 Period length:       31.00000 Time step count:         1 Time step multiplier:        1.00000
 Period length:       31.00000 Time step count:         1 Time step multiplier:        1.00000
 Period length:       30.00000 Time step count:         1 Time step multiplier:        1.00000
 Period length:       31.00000 Time step count:         1 Time step multiplier:        1.00000
 Period length:       30.00000 Time step count:         1 Time step multiplier:        1.00000
 Period length:       31.00000 Time step count:         1 Time step multiplier:        1.00000
 Period length:       31.00000 Time step count:         1 Time step multiplier:        1.00000
 Period length:       28.00000 Time step count:         1 Time step multiplier:        1.00000
 Period length:       31.00000 Time step count:         1 Time step multiplier:        1.00000
 Period length:       30.00000 Time step count:         1 Time step multiplier:        1.00000
 Period length:       31.00000 Time step count:         1 Time step multiplier:        1.00000
 Period length:       30.00000 Time step count:         1 Time step multiplier:        1.00000
 Period length:       31.00000 Time step count:         1 Time step multiplier:        1.00000
 Period length:       31.00000 Time step count:         1 Time step multiplier:        1.00000
 Period length:       30.00000 Time step count:         1 Time step multiplier:        1.00000
 Period length:       31.00000 Time step count:         1 Time step multiplier:        1.00000
 Period length:       30.00000 Time step count:         1 Time step multiplier:        1.00000
 Period length:       31.00000 Time step count:         1 Time step multiplier:        1.00000
 
 The budget file was opened successfully.
 
 MODPATH basic data file data
 ----------------------------
 # # MPBAS package for MODPATH 7 generated by Flopy 3.8.2
 Aquifer head is set to  1.00000E+30 at cells with IDOMAIN = 0.
 Aquifer head is set to -1.00000E+30 at all dry cells when Newton-Raphson rewetting is not active.
 

                 POROSITY =  0.100000     FOR LAYER   1
 
 MODPATH simulation file data
 ----------------------------
 # MPSIM package for MODPATH 7 generated by Flopy 3.8.2
Combined Pathline and Timeseries Analysis (Simulation type = 4)
Forward tracking (Tracking direction =  1)
Let particles pass through weak sink cells (Weak sink option = 1)
Let particles pass through weak source cells for backtracking simulations (Weak source option = 1)
Reference time =   0.0000000E+00
Extend initial or final steady-state time step and continue tracking (Stopping time option =  2)

A zone array will be read.
Particles will be allowed to pass through all zones. StopZone =    -1

               ZONE ARRAY =              0 FOR LAYER   1

The retardation factor for all cells = 1

Number of particle groups =     1
Particle group    1 contains          8 particles.
Total number of particles =          8
 
 
 Budget File Data
 ----------------
    Budget file type:  Unstructured grid
  Budget file format:  Compact
    Budget precision:  Double

The simulation will be run with stoptime =   0.1000000E+31
 
 
 Run particle tracking simulation ...
 
 ----------------------------------------------------------------------------------------------
 Processing Time Step     1 Period     1.  Time =  3.65250E+03  Steady-state flow                                                    
   (Cumulative step =      1)
 ----------------------------------------------------------------------------------------------
 
 Volumetric water balance summary:
 
          5 cells had errors less than or equal to    0.01 percent
         64 cells had errors between     0.01 and     0.10 percent
        527 cells had errors between     0.10 and     1.00 percent
        106 cells had errors between     1.00 and    10.00 percent
          4 cells had errors between    10.00 and    50.00 percent
          0 cells had errors between    50.00 and   100.00 percent
          0 cells had errors greater than   100.00 percent
 
 A maximum error of  0.11345E+02 percent occurred in cell        241
 
 -------------------------------------
       Cell       241
 -------------------------------------
 Layer, Ibound, IboundTS, Zone, LayerType:          1         1         1         0         1
 DX, DY, MinX, MinY:      0.2500000E+03  0.2500000E+03  0.0000000E+00  0.6750000E+04
 Bottom, Top, Head:       0.1232426E+02  0.4213451E+02  0.3679905E+02
 Porosity, Retardation:   0.1000000E+00  0.1000000E+01
 
 Volumetric Face Flows (L**3/T):
                                sub-face 1               sub-face 2               sub-face 3               sub-face 4
 Left   (face 1):    0.000000000000000E+00
 Right  (face 2):    0.344953949069892E+00
 Front  (face 3):   -0.323082287433415E+01
 Back   (face 4):    0.174344825044199E+01
 Bottom (face 5):    0.000000000000000E+00
 Top    (face 6):    0.000000000000000E+00
 
 Water balance components:
 Inflow (L**3/T)
      Total face inflow =    0.000000000000000E+00
          Source inflow =    0.474816312500000E+01
         Storage inflow =    0.000000000000000E+00
                           -----------------------
                Inflow  =    0.474816312500000E+01
 
 Outflow (L**3/T)
     Total face outflow =    0.531922507384603E+01
           Sink outflow =    0.000000000000000E+00
        Storage outflow =    0.000000000000000E+00
                           -----------------------
                 Ouflow =    0.531922507384603E+01
 
       Inflow - Outflow =   -0.571061948846030E+00
 
    Percent discrepancy =   -0.113447884906532E+02
 
 Face velocities (Forward tracking)
 SubCell ( 1,  1)
 DX, DY, DZ:   0.2500000E+03  0.2500000E+03  0.2447479E+02
                       Face Velocity (L/T)     Connection
 Left   (face 1):    0.000000000000000E+00              0
 Right  (face 2):    0.563770147655921E-03            242
 Front  (face 3):   -0.528024535977829E-02            261
 Back   (face 4):    0.284937766398201E-02            221
 Bottom (face 5):    0.000000000000000E+00              0
 Top    (face 6):    0.000000000000000E+00              0
 
 
 ----------------------------------------------------------------------------------------------
 Processing Time Step     1 Period     2.  Time =  3.68350E+03  Steady-state flow                                                    
   (Cumulative step =      2)
 ----------------------------------------------------------------------------------------------
 
 Volumetric water balance summary:
 
          3 cells had errors less than or equal to    0.01 percent
         31 cells had errors between     0.01 and     0.10 percent
        280 cells had errors between     0.10 and     1.00 percent
        389 cells had errors between     1.00 and    10.00 percent
          3 cells had errors between    10.00 and    50.00 percent
          0 cells had errors between    50.00 and   100.00 percent
          0 cells had errors greater than   100.00 percent
 
 A maximum error of  0.15208E+02 percent occurred in cell        714
 
 -------------------------------------
       Cell       714
 -------------------------------------
 Layer, Ibound, IboundTS, Zone, LayerType:          1         1         1         0         1
 DX, DY, MinX, MinY:      0.2500000E+03  0.2500000E+03  0.3250000E+04  0.1000000E+04
 Bottom, Top, Head:       0.1499467E+00  0.3556995E+02  0.3403308E+02
 Porosity, Retardation:   0.1000000E+00  0.1000000E+01
 
 Volumetric Face Flows (L**3/T):
                                sub-face 1               sub-face 2               sub-face 3               sub-face 4
 Left   (face 1):    0.196724476377828E+01
 Right  (face 2):    0.479935450242162E+01
 Front  (face 3):   -0.314288318486272E-01
 Back   (face 4):    0.394544800420292E+01
 Bottom (face 5):    0.000000000000000E+00
 Top    (face 6):    0.000000000000000E+00
 
 Water balance components:
 Inflow (L**3/T)
      Total face inflow =    0.196724476377828E+01
          Source inflow =    0.556863750000000E+01
         Storage inflow =    0.000000000000000E+00
                           -----------------------
                Inflow  =    0.753588226377828E+01
 
 Outflow (L**3/T)
     Total face outflow =    0.877623133847317E+01
           Sink outflow =    0.000000000000000E+00
        Storage outflow =    0.000000000000000E+00
                           -----------------------
                 Ouflow =    0.877623133847317E+01
 
       Inflow - Outflow =   -0.124034907469489E+01
 
    Percent discrepancy =   -0.152077052053351E+02
 
 Face velocities (Forward tracking)
 SubCell ( 1,  1)
 DX, DY, DZ:   0.2500000E+03  0.2500000E+03  0.3388313E+02
                       Face Velocity (L/T)     Connection
 Left   (face 1):    0.232238848299488E-02            713
 Right  (face 2):    0.566577470554640E-02            715
 Front  (face 3):   -0.371026312857228E-04            734
 Back   (face 4):    0.465771375983628E-02            694
 Bottom (face 5):    0.000000000000000E+00              0
 Top    (face 6):    0.000000000000000E+00              0
 
 
 ----------------------------------------------------------------------------------------------
 Processing Time Step     1 Period     3.  Time =  3.71250E+03  Steady-state flow                                                    
   (Cumulative step =      3)
 ----------------------------------------------------------------------------------------------
 
 Volumetric water balance summary:
 
          0 cells had errors less than or equal to    0.01 percent
          0 cells had errors between     0.01 and     0.10 percent
         31 cells had errors between     0.10 and     1.00 percent
        612 cells had errors between     1.00 and    10.00 percent
         63 cells had errors between    10.00 and    50.00 percent
          0 cells had errors between    50.00 and   100.00 percent
          0 cells had errors greater than   100.00 percent
 
 A maximum error of  0.33654E+02 percent occurred in cell        241
 
 -------------------------------------
       Cell       241
 -------------------------------------
 Layer, Ibound, IboundTS, Zone, LayerType:          1         1         1         0         1
 DX, DY, MinX, MinY:      0.2500000E+03  0.2500000E+03  0.0000000E+00  0.6750000E+04
 Bottom, Top, Head:       0.1232426E+02  0.4213451E+02  0.3691248E+02
 Porosity, Retardation:   0.1000000E+00  0.1000000E+01
 
 Volumetric Face Flows (L**3/T):
                                sub-face 1               sub-face 2               sub-face 3               sub-face 4
 Left   (face 1):    0.000000000000000E+00
 Right  (face 2):    0.348952332314444E+00
 Front  (face 3):   -0.339336028394329E+01
 Back   (face 4):    0.163982882315495E+01
 Bottom (face 5):    0.000000000000000E+00
 Top    (face 6):    0.000000000000000E+00
 
 Water balance components:
 Inflow (L**3/T)
      Total face inflow =    0.000000000000000E+00
          Source inflow =    0.755990625000000E+01
         Storage inflow =    0.000000000000000E+00
                           -----------------------
                Inflow  =    0.755990625000000E+01
 
 Outflow (L**3/T)
     Total face outflow =    0.538214143941269E+01
           Sink outflow =    0.000000000000000E+00
        Storage outflow =    0.000000000000000E+00
                           -----------------------
                 Ouflow =    0.538214143941269E+01
 
       Inflow - Outflow =    0.217776481058731E+01
 
    Percent discrepancy =    0.336540996115915E+02
 
 Face velocities (Forward tracking)
 SubCell ( 1,  1)
 DX, DY, DZ:   0.2500000E+03  0.2500000E+03  0.2458822E+02
                       Face Velocity (L/T)     Connection
 Left   (face 1):    0.000000000000000E+00              0
 Right  (face 2):    0.567674068025843E-03            242
 Front  (face 3):   -0.552030308520073E-02            261
 Back   (face 4):    0.266766607557037E-02            221
 Bottom (face 5):    0.000000000000000E+00              0
 Top    (face 6):    0.000000000000000E+00              0
 
 
 ----------------------------------------------------------------------------------------------
 Processing Time Step     1 Period     4.  Time =  3.74350E+03  Steady-state flow                                                    
   (Cumulative step =      4)
 ----------------------------------------------------------------------------------------------
 
 Volumetric water balance summary:
 
          2 cells had errors less than or equal to    0.01 percent
          1 cells had errors between     0.01 and     0.10 percent
          7 cells had errors between     0.10 and     1.00 percent
        590 cells had errors between     1.00 and    10.00 percent
        106 cells had errors between    10.00 and    50.00 percent
          0 cells had errors between    50.00 and   100.00 percent
          0 cells had errors greater than   100.00 percent
 
 A maximum error of  0.46257E+02 percent occurred in cell        241
 
 -------------------------------------
       Cell       241
 -------------------------------------
 Layer, Ibound, IboundTS, Zone, LayerType:          1         1         1         0         1
 DX, DY, MinX, MinY:      0.2500000E+03  0.2500000E+03  0.0000000E+00  0.6750000E+04
 Bottom, Top, Head:       0.1232426E+02  0.4213451E+02  0.3707673E+02
 Porosity, Retardation:   0.1000000E+00  0.1000000E+01
 
 Volumetric Face Flows (L**3/T):
                                sub-face 1               sub-face 2               sub-face 3               sub-face 4
 Left   (face 1):    0.000000000000000E+00
 Right  (face 2):    0.358799270212179E+00
 Front  (face 3):   -0.359358827228946E+01
 Back   (face 4):    0.156456942851217E+01
 Bottom (face 5):    0.000000000000000E+00
 Top    (face 6):    0.000000000000000E+00
 
 Water balance components:
 Inflow (L**3/T)
      Total face inflow =    0.000000000000000E+00
          Source inflow =    0.883671875000000E+01
         Storage inflow =    0.000000000000000E+00
                           -----------------------
                Inflow  =    0.883671875000000E+01
 
 Outflow (L**3/T)
     Total face outflow =    0.551695697101381E+01
           Sink outflow =    0.000000000000000E+00
        Storage outflow =    0.000000000000000E+00
                           -----------------------
                 Ouflow =    0.551695697101381E+01
 
       Inflow - Outflow =    0.331976177898619E+01
 
    Percent discrepancy =    0.462566083212546E+02
 
 Face velocities (Forward tracking)
 SubCell ( 1,  1)
 DX, DY, DZ:   0.2500000E+03  0.2500000E+03  0.2475247E+02
                       Face Velocity (L/T)     Connection
 Left   (face 1):    0.000000000000000E+00              0
 Right  (face 2):    0.579819704962399E-03            242
 Front  (face 3):   -0.580723949232962E-02            261
 Back   (face 4):    0.252834456406964E-02            221
 Bottom (face 5):    0.000000000000000E+00              0
 Top    (face 6):    0.000000000000000E+00              0
 
 
 ----------------------------------------------------------------------------------------------
 Processing Time Step     1 Period     5.  Time =  3.77350E+03  Steady-state flow                                                    
   (Cumulative step =      5)
 ----------------------------------------------------------------------------------------------
 
 Volumetric water balance summary:
 
          5 cells had errors less than or equal to    0.01 percent
          0 cells had errors between     0.01 and     0.10 percent
          7 cells had errors between     0.10 and     1.00 percent
        610 cells had errors between     1.00 and    10.00 percent
         84 cells had errors between    10.00 and    50.00 percent
          0 cells had errors between    50.00 and   100.00 percent
          0 cells had errors greater than   100.00 percent
 
 A maximum error of  0.45610E+02 percent occurred in cell        241
 
 -------------------------------------
       Cell       241
 -------------------------------------
 Layer, Ibound, IboundTS, Zone, LayerType:          1         1         1         0         1
 DX, DY, MinX, MinY:      0.2500000E+03  0.2500000E+03  0.0000000E+00  0.6750000E+04
 Bottom, Top, Head:       0.1232426E+02  0.4213451E+02  0.3723752E+02
 Porosity, Retardation:   0.1000000E+00  0.1000000E+01
 
 Volumetric Face Flows (L**3/T):
                                sub-face 1               sub-face 2               sub-face 3               sub-face 4
 Left   (face 1):    0.000000000000000E+00
 Right  (face 2):    0.371089955512892E+00
 Front  (face 3):   -0.377220230654223E+01
 Back   (face 4):    0.154034412653642E+01
 Bottom (face 5):    0.000000000000000E+00
 Top    (face 6):    0.000000000000000E+00
 
 Water balance components:
 Inflow (L**3/T)
      Total face inflow =    0.000000000000000E+00
          Source inflow =    0.904180000000000E+01
         Storage inflow =    0.000000000000000E+00
                           -----------------------
                Inflow  =    0.904180000000000E+01
 
 Outflow (L**3/T)
     Total face outflow =    0.568363638859155E+01
           Sink outflow =    0.000000000000000E+00
        Storage outflow =    0.000000000000000E+00
                           -----------------------
                 Ouflow =    0.568363638859155E+01
 
       Inflow - Outflow =    0.335816361140845E+01
 
    Percent discrepancy =    0.456103781618339E+02
 
 Face velocities (Forward tracking)
 SubCell ( 1,  1)
 DX, DY, DZ:   0.2500000E+03  0.2500000E+03  0.2491326E+02
                       Face Velocity (L/T)     Connection
 Left   (face 1):    0.000000000000000E+00              0
 Right  (face 2):    0.595811052115967E-03            242
 Front  (face 3):   -0.605653640489637E-02            261
 Back   (face 4):    0.247313095118371E-02            221
 Bottom (face 5):    0.000000000000000E+00              0
 Top    (face 6):    0.000000000000000E+00              0
 
 
 ----------------------------------------------------------------------------------------------
 Processing Time Step     1 Period     6.  Time =  3.80450E+03  Steady-state flow                                                    
   (Cumulative step =      6)
 ----------------------------------------------------------------------------------------------
 
 Volumetric water balance summary:
 
          6 cells had errors less than or equal to    0.01 percent
          0 cells had errors between     0.01 and     0.10 percent
        248 cells had errors between     0.10 and     1.00 percent
        422 cells had errors between     1.00 and    10.00 percent
         30 cells had errors between    10.00 and    50.00 percent
          0 cells had errors between    50.00 and   100.00 percent
          0 cells had errors greater than   100.00 percent
 
 A maximum error of  0.31758E+02 percent occurred in cell        241
 
 -------------------------------------
       Cell       241
 -------------------------------------
 Layer, Ibound, IboundTS, Zone, LayerType:          1         1         1         0         1
 DX, DY, MinX, MinY:      0.2500000E+03  0.2500000E+03  0.0000000E+00  0.6750000E+04
 Bottom, Top, Head:       0.1232426E+02  0.4213451E+02  0.3734713E+02
 Porosity, Retardation:   0.1000000E+00  0.1000000E+01
 
 Volumetric Face Flows (L**3/T):
                                sub-face 1               sub-face 2               sub-face 3               sub-face 4
 Left   (face 1):    0.000000000000000E+00
 Right  (face 2):    0.384448212451918E+00
 Front  (face 3):   -0.390554448343122E+01
 Back   (face 4):    0.157770455397563E+01
 Bottom (face 5):    0.000000000000000E+00
 Top    (face 6):    0.000000000000000E+00
 
 Water balance components:
 Inflow (L**3/T)
      Total face inflow =    0.000000000000000E+00
          Source inflow =    0.808293125000000E+01
         Storage inflow =    0.000000000000000E+00
                           -----------------------
                Inflow  =    0.808293125000000E+01
 
 Outflow (L**3/T)
     Total face outflow =    0.586769724985877E+01
           Sink outflow =    0.000000000000000E+00
        Storage outflow =    0.000000000000000E+00
                           -----------------------
                 Ouflow =    0.586769724985877E+01
 
       Inflow - Outflow =    0.221523400014123E+01
 
    Percent discrepancy =    0.317581964162211E+02
 
 Face velocities (Forward tracking)
 SubCell ( 1,  1)
 DX, DY, DZ:   0.2500000E+03  0.2500000E+03  0.2502287E+02
                       Face Velocity (L/T)     Connection
 Left   (face 1):    0.000000000000000E+00              0
 Right  (face 2):    0.614555061943108E-03            242
 Front  (face 3):   -0.624316111818786E-02            261
 Back   (face 4):    0.252202062200428E-02            221
 Bottom (face 5):    0.000000000000000E+00              0
 Top    (face 6):    0.000000000000000E+00              0
 
 
 ----------------------------------------------------------------------------------------------
 Processing Time Step     1 Period     7.  Time =  3.83450E+03  Steady-state flow                                                    
   (Cumulative step =      7)
 ----------------------------------------------------------------------------------------------
 
 Volumetric water balance summary:
 
          0 cells had errors less than or equal to    0.01 percent
         14 cells had errors between     0.01 and     0.10 percent
        247 cells had errors between     0.10 and     1.00 percent
        429 cells had errors between     1.00 and    10.00 percent
         16 cells had errors between    10.00 and    50.00 percent
          0 cells had errors between    50.00 and   100.00 percent
          0 cells had errors greater than   100.00 percent
 
 A maximum error of  0.16202E+02 percent occurred in cell        300
 
 -------------------------------------
       Cell       300
 -------------------------------------
 Layer, Ibound, IboundTS, Zone, LayerType:          1         1         1         0         1
 DX, DY, MinX, MinY:      0.2500000E+03  0.2500000E+03  0.4750000E+04  0.6250000E+04
 Bottom, Top, Head:       0.3055383E+01  0.3673284E+02  0.3459589E+02
 Porosity, Retardation:   0.1000000E+00  0.1000000E+01
 
 Volumetric Face Flows (L**3/T):
                                sub-face 1               sub-face 2               sub-face 3               sub-face 4
 Left   (face 1):   -0.605824090298479E+01
 Right  (face 2):    0.000000000000000E+00
 Front  (face 3):   -0.984024045435279E+00
 Back   (face 4):    0.255368213665824E+00
 Bottom (face 5):    0.000000000000000E+00
 Top    (face 6):    0.000000000000000E+00
 
 Water balance components:
 Inflow (L**3/T)
      Total face inflow =    0.000000000000000E+00
          Source inflow =    0.620385937500000E+01
         Storage inflow =    0.000000000000000E+00
                           -----------------------
                Inflow  =    0.620385937500000E+01
 
 Outflow (L**3/T)
     Total face outflow =    0.729763316208589E+01
           Sink outflow =    0.000000000000000E+00
        Storage outflow =    0.000000000000000E+00
                           -----------------------
                 Ouflow =    0.729763316208589E+01
 
       Inflow - Outflow =   -0.109377378708589E+01
 
    Percent discrepancy =   -0.162022648100795E+02
 
 Face velocities (Forward tracking)
 SubCell ( 1,  1)
 DX, DY, DZ:   0.2500000E+03  0.2500000E+03  0.3154050E+02
                       Face Velocity (L/T)     Connection
 Left   (face 1):   -0.768312500915493E-02            299
 Right  (face 2):    0.000000000000000E+00              0
 Front  (face 3):   -0.124794967287761E-02            320
 Back   (face 4):    0.323860661927863E-03            280
 Bottom (face 5):    0.000000000000000E+00              0
 Top    (face 6):    0.000000000000000E+00              0
 
 
 ----------------------------------------------------------------------------------------------
 Processing Time Step     1 Period     8.  Time =  3.86550E+03  Steady-state flow                                                    
   (Cumulative step =      8)
 ----------------------------------------------------------------------------------------------
 
 Volumetric water balance summary:
 
          0 cells had errors less than or equal to    0.01 percent
          2 cells had errors between     0.01 and     0.10 percent
          7 cells had errors between     0.10 and     1.00 percent
        541 cells had errors between     1.00 and    10.00 percent
        156 cells had errors between    10.00 and    50.00 percent
          0 cells had errors between    50.00 and   100.00 percent
          0 cells had errors greater than   100.00 percent
 
 A maximum error of  0.47312E+02 percent occurred in cell        300
 
 -------------------------------------
       Cell       300
 -------------------------------------
 Layer, Ibound, IboundTS, Zone, LayerType:          1         1         1         0         1
 DX, DY, MinX, MinY:      0.2500000E+03  0.2500000E+03  0.4750000E+04  0.6250000E+04
 Bottom, Top, Head:       0.3055383E+01  0.3673284E+02  0.3447684E+02
 Porosity, Retardation:   0.1000000E+00  0.1000000E+01
 
 Volumetric Face Flows (L**3/T):
                                sub-face 1               sub-face 2               sub-face 3               sub-face 4
 Left   (face 1):   -0.506474624726022E+01
 Right  (face 2):    0.000000000000000E+00
 Front  (face 3):   -0.107040648569262E+01
 Back   (face 4):    0.156391360748960E+00
 Bottom (face 5):    0.000000000000000E+00
 Top    (face 6):    0.000000000000000E+00
 
 Water balance components:
 Inflow (L**3/T)
      Total face inflow =    0.000000000000000E+00
          Source inflow =    0.388432187500000E+01
         Storage inflow =    0.000000000000000E+00
                           -----------------------
                Inflow  =    0.388432187500000E+01
 
 Outflow (L**3/T)
     Total face outflow =    0.629154409370180E+01
           Sink outflow =    0.000000000000000E+00
        Storage outflow =    0.000000000000000E+00
                           -----------------------
                 Ouflow =    0.629154409370180E+01
 
       Inflow - Outflow =   -0.240722221870180E+01
 
    Percent discrepancy =   -0.473123806092919E+02
 
 Face velocities (Forward tracking)
 SubCell ( 1,  1)
 DX, DY, DZ:   0.2500000E+03  0.2500000E+03  0.3142146E+02
                       Face Velocity (L/T)     Connection
 Left   (face 1):   -0.644749934358381E-02            299
 Right  (face 2):    0.000000000000000E+00              0
 Front  (face 3):   -0.136264380818770E-02            320
 Back   (face 4):    0.199088591322133E-03            280
 Bottom (face 5):    0.000000000000000E+00              0
 Top    (face 6):    0.000000000000000E+00              0
 
 
 ----------------------------------------------------------------------------------------------
 Processing Time Step     1 Period     9.  Time =  3.89650E+03  Steady-state flow                                                    
   (Cumulative step =      9)
 ----------------------------------------------------------------------------------------------
 
 Volumetric water balance summary:
 
          0 cells had errors less than or equal to    0.01 percent
          0 cells had errors between     0.01 and     0.10 percent
          2 cells had errors between     0.10 and     1.00 percent
        395 cells had errors between     1.00 and    10.00 percent
        280 cells had errors between    10.00 and    50.00 percent
         28 cells had errors between    50.00 and   100.00 percent
          1 cells had errors greater than   100.00 percent
 
 A maximum error of  0.10873E+03 percent occurred in cell        241
 
 -------------------------------------
       Cell       241
 -------------------------------------
 Layer, Ibound, IboundTS, Zone, LayerType:          1         1         1         0         1