# File generated by Flopy version 3.8.2 on 06/07/2025 at 12:57:51.
BEGIN options
END options

BEGIN continuous  FILEOUT  sfr.csv
  headwater  sfr  headwater
  tailwater  sfr  tailwater
  gage-1  inflow  40.0
END continuous  FILEOUT  sfr.csv

