# File generated by Flopy version 3.8.2 on 01/20/2025 at 14:52:32.
BEGIN options
  PRINT_FLOWS
  SAVE_FLOWS
END options

BEGIN packages
  WEL6  symp06_1.wel  wel_2
  RCH6  symp06.rcha  rch
  IC6  symp06.ic  ic
  OC6  symp06.oc  oc
  WEL6  symp06.wel  wel_0
  DIS6  symp06.dis  dis
  WEL6  symp06_0.wel  wel_1
  NPF6  symp06.npf  npf
  STO6  symp06.sto  sto
  RIV6  symp06.riv  riv_0
  OBS6  symp06_2.obs  obs_1
END packages

