# File generated by Flopy version 3.8.2 on 01/20/2025 at 14:52:32.
BEGIN options
  DIGITS  10
END options

BEGIN continuous  FILEOUT  drawdown_obs.csv
  dd_0_7_4  DRAWDOWN  1 8 5
  dd_2_7_4  DRAWDOWN  3 8 5
END continuous  FILEOUT  drawdown_obs.csv

BEGIN continuous  FILEOUT  head_obs.csv
  h_0_7_4  HEAD  1 8 5
  h_2_7_4  HEAD  3 8 5
END continuous  FILEOUT  head_obs.csv

