# File generated by Flopy version 3.8.2 on 01/20/2025 at 14:52:32.
BEGIN options
  BUDGET  FILEOUT  symp06.cbb
  HEAD  FILEOUT  symp06.hds
END options

BEGIN period  1
  SAVE  HEAD  ALL
  SAVE  BUDGET  ALL
  PRINT  HEAD  LAST
END period  1

