# File generated by Flopy version 3.8.2 on 01/20/2025 at 14:11:03.
BEGIN options
END options

BEGIN timing
  TDIS6  symple_ex01.tdis
END timing

BEGIN models
  gwf6  symp01.nam  symp01
END models

BEGIN exchanges
END exchanges

BEGIN solutiongroup  1
  ims6  symple_ex01.ims  symp01
END solutiongroup  1

