# File generated by Flopy version 3.9.1 on 05/18/2025 at 14:58:19.
BEGIN options
END options

BEGIN griddata
  strt
    CONSTANT       0.00000000
END griddata

