# File generated by Flopy version 3.9.1 on 04/30/2025 at 10:45:52.
BEGIN options
END options

BEGIN packages
  DIS6  ex-gwf-sfr-psb.dis  dis
  NPF6  ex-gwf-sfr-psb.npf  npf
  STO6  ex-gwf-sfr-psb.sto  sto
  IC6  ex-gwf-sfr-psb.ic  ic
  OC6  ex-gwf-sfr-psb.oc  oc
  SFR6  ex-gwf-sfr-psb.sfr  sfr-1
END packages

