# File generated by Flopy version 3.10.0.dev3 on 06/16/2025 at 06:44:21.
BEGIN options
END options

BEGIN griddata
  strt  LAYERED
    INTERNAL  FACTOR  1.0
         101.09039307     101.13024139     101.25666046     101.25666046     101.28726959     101.23593903     101.02922058     100.70333862      99.61818695      97.70894623      97.26135254      95.48061371      94.44600677      90.18769073      87.03125000      83.31587219      80.09763336      70.97997284      67.95307159      67.08169556      67.00645447      66.26735687      65.70725250      65.15328217      63.83684158      62.15637970      60.18175125      60.18175125      58.35778427      52.93722153      51.20437241      51.20437241      50.16458130      47.71946335      47.71946335      44.04087067      40.99962997
         101.72914124     101.09039307     101.13024139     101.25666046     101.28726959     101.23593903     101.02922058     100.49099731      99.48647308      98.18162537      96.52616882      94.43696594      91.56060028      88.15284729      87.03125000      83.31587219      75.64496613      70.97997284      67.95307159      67.08169556      66.40056610      66.26735687      65.70725250      65.15328217      63.83684158      62.15637970      60.18175125      59.30734634      52.93722153      52.93722153      51.20437241      51.20437241      48.97345734      47.71946335      47.71946335      40.99962997      40.99962997
         102.49778748     101.72914124     101.09039307     101.13024139     101.25666046     101.22657013     100.83457947     100.08406830      98.99633026      97.56451416      95.74765015      93.44152069      90.51528168      86.88935852      82.50525665      77.49407196      72.61897278      69.11573029      67.49756622      67.00645447      66.40056610      65.78166199      65.15328217      63.83684158      63.17837143      61.36823273      60.18175125      58.35778427      52.93722153      52.93722153      51.20437241      50.16458130      47.71946335      47.71946335      44.04087067      40.99962997      36.22415924
         102.76670074     102.49778748     101.72914124     101.09039307     100.99311066     100.49706268      99.74761963      98.77453613      97.55210876      96.03510284      94.14903259      91.77485657      88.75533295      84.91094971      80.06882477      74.29592896      69.07550049      66.76077271      66.10717773      65.89859009      65.64193726      65.13110352      64.18395996      63.83684158      62.15637970      60.18175125      59.30734634      55.99590683      52.93722153      51.20437241      51.20437241      48.97345734      47.71946335      44.04087067      40.99962997      36.22415924      36.22415924
         103.35204315     102.76670074     101.97846222     101.02243805      99.91932678      98.74380493      97.61303711      96.43305206      95.10495758      93.55847168      91.70294952      89.39275360      86.41493988      82.47927856      77.14799500      69.46596527      58.77575684      59.32310867      61.75797272      63.02060318      63.67755890      63.62630844      62.98958588      61.95140839      60.52481461      59.30734634      58.35778427      55.99590683      52.93722153      51.20437241      50.16458130      47.71946335      44.04087067      40.99962997      40.99962997      36.22415924      29.29211807
         103.61625671     103.35204315     101.97846222     100.13890839      97.61560059      95.61146545      94.22698975      92.92340851      91.53657532      90.03145599      88.33377075      86.27623749      83.58163452      79.88236237      74.67008209      67.04887390      53.88888931      52.77777863      56.03382492      58.95616531      60.42432785      60.98432159      60.59080887      59.82408905      58.73880768      57.30831528      55.37643814      53.35088730      51.43504333      51.20437241      48.97345734      47.71946335      44.04087067      40.99962997      36.22415924      29.29211807      29.29211807
         104.34490204     103.47116852     102.05284882      98.67810822      93.12428284      90.47088623      89.46460724      88.11869049      86.67359924      85.26643372      83.88273621      82.35221100      80.27700806      77.22476959      72.81597900      66.75411224      56.86277008      51.11111069      50.55555725      54.62570190      56.39251328      57.09560776      56.93693542      56.38941574      55.62852478      54.62416458      53.31422043      51.74875641      49.94956207      47.81800079      45.84745407      44.04087067      40.99962997      36.22415924      34.95113373      29.29211807      23.74958992
         105.29252625     104.01184845     102.03530884      98.10408020      90.01431274      84.44444275      83.62719727      81.87342834      80.28450775      78.93200684      78.01248169      77.48957062      76.47556305      74.41047668      71.06285095      66.39675903      59.59486008      51.88072205      49.44444275      50.49948120      51.60012817      52.09242249      51.84635925      51.44017410      51.04969025      50.58082199      49.82624817      48.66368484      47.05564880      44.97275543      42.33663177      39.17969513      38.48136902      34.95113373      29.29211807      23.74958992      20.11955261
         105.53228760     104.49772644     102.19071198      98.24797821      91.94060516      84.44444275      81.66666412      78.88888550      76.11111450      73.33333588      70.55555725      70.00000000      71.86842346      71.38854218      69.09484863      65.55821991      60.71808243      54.16123962      48.33333206      45.55555725      45.00000000      45.59077835      44.97950363      44.55158234      44.52327728      44.76303482      44.97594452      44.24005508      42.82469940      40.82455444      38.32235718      35.34433365      31.82070541      29.29211807      26.27565956      20.11955261      17.02588463
         106.15061951     104.95815277     102.65837860      99.16442108      94.57428741      89.65061951      85.35812378      81.69876099      78.12384796      74.56716919      70.88367462      67.77777863      66.66666412      68.26345062      66.82621765      64.14474487      60.52262115      55.81394577      50.37471771      45.96897125      42.77777863      40.00000000      37.22222137      34.44444275      33.88888931      36.47253418      38.27091599      38.60053635      37.24243927      35.19605255      32.75003815      30.03706741      27.08341408      23.76416206      20.11955261      20.11955261      15.80568409
         106.46109772     105.27696991     103.09618378      99.99404907      96.17173004      92.00321960      87.90203857      84.00646973      80.23651886      76.48960114      72.60894012      68.40460968      65.00000000      64.44444275      64.23639679      62.07209015      59.04927826      55.47606659      51.75616074      47.98077774      44.24906921      40.86238098      37.66863632      34.64134598      31.66666794      29.44444466      30.80040932      31.95338631      30.21158791      27.74527931      25.18944550      22.65516281      20.43550491      18.38151550      16.32099915      14.93202114      15.80568409
         106.42813110     105.17642975     103.03238678     100.09864044      96.53376770      92.54634857      88.38343811      84.23432159      80.21315002      76.34709930      72.61635590      69.01802826      65.21201324      62.22222137      61.23895645      59.22768021      56.48804092      53.10843658      49.71608353      46.67704010      43.68365860      40.47543335      37.46049500      34.44444275      31.86635780      28.88888931      26.11111069      24.78235817      21.66449928      17.77777863      15.00000000      12.22222233      10.55555630      10.59710693       9.92963219       9.27938557      12.05373383
         106.00353241     104.64302063     102.38244629      99.27772522      95.42691803      91.10030365      86.60391235      82.13350677      77.94239044      74.02459717      70.55555725      67.77777863      65.00000000      62.22222137      59.44444275      56.66666794      53.88888931      51.11111069      48.33333206      45.55555725      42.77777863      40.00000000      37.22222137      36.15496063      31.66666794      28.88888931      26.11111069      23.33333206      20.55555534      20.00000000      17.42278481      14.33384705       9.44444466       6.66666651       3.88888884       1.11111104       3.64044738
         105.27056122     103.76230621     101.33724213      97.93894958      93.42872620      88.33638763      83.40344238      78.88888550      76.11111450      73.33333588      71.18558502      69.01943970      66.50132751      63.88359070      60.85033417      57.60947418      54.63008881      51.83272171      48.59815216      45.55555725      45.00000000      46.92776108      46.42558670      44.97849274      42.73672867      40.36610413      37.95243073      35.49191666      33.11457443      30.80833817      27.93769455      24.35643768      19.93776894      14.95295429       9.96566200       7.73176527      12.84685135
         105.08039856     102.44425964      99.99815369      96.43991089      90.91739655      84.44444275      81.66666412      79.63040924      78.16852570      76.33744812      74.09729004      71.45140076      68.46939087      65.27632904      61.66249084      58.00939178      54.48006058      51.11111069      48.33333206      47.22222137      50.96562576      53.32507324      53.78060532      52.81556320      51.26879883      49.36273956      47.22244263      44.88937759      42.37435150      39.59614563      36.38043976      32.64879990      28.47854614      24.16504860      20.38151932      18.48690605      21.01107788
         103.59868622     101.67651367      98.65974426      95.12747192      90.66130066      85.33496857      83.91230011      82.54405212      80.83419800      78.66692352      75.97972870      72.73696899      68.52391815      64.10968018      59.84117126      56.66666794      53.88888931      52.22222137      53.72668076      55.88869858      57.92779922      59.42660522      59.97024155      59.28887177      58.08128738      56.46199417      54.50263214      52.22443771      49.60354614      46.56852341      43.03670120      39.02426147      34.70677185      30.36416817      26.26236916      23.36734200      22.38552666
         103.59868622     100.96144104      98.65974426      94.86888123      91.04132080      88.24512482      86.25640869      84.49988556      82.51707458      80.07183838      76.96694183      72.72767639      65.95950317      62.22222137      59.44444275      58.88888931      59.47963333      59.86957550      61.03429413      62.43316269      63.73913574      64.69684601      65.06093597      64.50473022      63.47613907      62.02780533      60.18647766      57.94366837      55.25304413      52.02412033      48.12842941      43.58039856      38.79989624      33.95093918      33.31681442      26.97802544      23.36734200
         100.96144104      98.65974426      97.10437775      92.69839478      91.39332581      88.69767761      87.02427673      85.33779144      83.17240143      80.65895081      77.39077759      72.74407959      65.00000000      63.88888931      64.17047882      64.50457001      64.89014435      65.47366333      66.33112335      67.31683350      68.22325134      68.87299347      69.05139923      68.54328156      67.61442566      66.27883911      64.52954865      62.32903290      59.61370468      56.28265381      52.08895493      49.06252289      45.19978333      39.18238449      35.65993881      30.98413849      26.97802544
         100.96144104      98.65974426      95.37735748      92.69839478      90.28887939      88.20022583      87.21867371      86.03322601      82.92853546      80.49723053      76.92732239      73.68440247      70.01129150      68.43979645      68.15058136      68.17131042      68.50404358      69.10647583      69.87551880      70.68721771      71.39953613      71.88513184      71.93553162      71.44788361      70.58512115      69.34431458      67.69616699      65.56447601      62.86966324      59.38526535      58.87570190      53.56578064      45.19978333      41.66490173      35.65993881      33.31681442      30.98413849
          98.65974426      97.10437775      92.69839478      91.39332581      90.28887939      88.20022583      86.23340607      84.74906158      82.92853546      79.56042480      76.92732239      74.19193268      71.25926971      70.07136536      69.84031677      69.88458252      70.33023071      71.04479218      71.85427856      72.64981079      73.31381989      73.73072815      73.71149445      73.23657227      72.42575073      71.28643799      69.78900909      67.82201385      66.30842590      64.83912659      62.05468369      58.87570190      53.56578064      41.66490173      35.65993881      35.65993881      30.98413849
          98.65974426      92.69839478      92.69839478      90.28887939      88.20022583      87.21867371      86.23340607      84.74906158      81.32525635      79.56042480      76.92732239      74.19193268      71.48468018      69.99037933      69.93244934      70.30052185      71.39093018      71.77478790      72.81832886      74.00769043      74.07347107      74.42408752      74.37804413      73.90922546      73.12643433      72.08648682      71.51026917      70.19281006      68.55593109      64.83912659      62.05468369      58.87570190      58.87570190      45.19978333      41.66490173      35.65993881      33.31681442
    INTERNAL  FACTOR  1.0
         101.09039307     101.13024139     101.25666046     101.25666046     101.28726959     101.23593903     101.02922058     100.70333862      99.61818695      97.70894623      97.26135254      95.48061371      94.44600677      90.18769073      87.03125000      83.31587219      80.09763336      70.97997284      67.95307159      67.08169556      67.00645447      66.26735687      65.70725250      65.15328217      63.83684158      62.15637970      60.18175125      60.18175125      58.35778427      52.93722153      51.20437241      51.20437241      50.16458130      47.71946335      47.71946335      44.04087067      40.99962997
         101.72914124     101.09039307     101.13024139     101.25666046     101.28726959     101.23593903     101.02922058     100.49099731      99.48647308      98.18162537      96.52616882      94.43696594      91.56060028      88.15284729      87.03125000      83.31587219      75.64496613      70.97997284      67.95307159      67.08169556      66.40056610      66.26735687      65.70725250      65.15328217      63.83684158      62.15637970      60.18175125      59.30734634      52.93722153      52.93722153      51.20437241      51.20437241      48.97345734      47.71946335      47.71946335      40.99962997      40.99962997
         102.49778748     101.72914124     101.09039307     101.13024139     101.25666046     101.22657013     100.83457947     100.08406830      98.99633026      97.56451416      95.74765015      93.44152069      90.51528168      86.88935852      82.50525665      77.49407196      72.61897278      69.11573029      67.49756622      67.00645447      66.40056610      65.78166199      65.15328217      63.83684158      63.17837143      61.36823273      60.18175125      58.35778427      52.93722153      52.93722153      51.20437241      50.16458130      47.71946335      47.71946335      44.04087067      40.99962997      36.22415924
         102.76670074     102.49778748     101.72914124     101.09039307     100.99311066     100.49706268      99.74761963      98.77453613      97.55210876      96.03510284      94.14903259      91.77485657      88.75533295      84.91094971      80.06882477      74.29592896      69.07550049      66.76077271      66.10717773      65.89859009      65.64193726      65.13110352      64.18395996      63.83684158      62.15637970      60.18175125      59.30734634      55.99590683      52.93722153      51.20437241      51.20437241      48.97345734      47.71946335      44.04087067      40.99962997      36.22415924      36.22415924
         103.35204315     102.76670074     101.97846222     101.02243805      99.91932678      98.74380493      97.61303711      96.43305206      95.10495758      93.55847168      91.70294952      89.39275360      86.41493988      82.47927856      77.14799500      69.46596527      58.77575684      59.32310867      61.75797272      63.02060318      63.67755890      63.62630844      62.98958588      61.95140839      60.52481461      59.30734634      58.35778427      55.99590683      52.93722153      51.20437241      50.16458130      47.71946335      44.04087067      40.99962997      40.99962997      36.22415924      29.29211807
         103.61625671     103.35204315     101.97846222     100.13890839      97.61560059      95.61146545      94.22698975      92.92340851      91.53657532      90.03145599      88.33377075      86.27623749      83.58163452      79.88236237      74.67008209      67.04887390      53.88888931      52.77777863      56.03382492      58.95616531      60.42432785      60.98432159      60.59080887      59.82408905      58.73880768      57.30831528      55.37643814      53.35088730      51.43504333      51.20437241      48.97345734      47.71946335      44.04087067      40.99962997      36.22415924      29.29211807      29.29211807
         104.34490204     103.47116852     102.05284882      98.67810822      93.12428284      90.47088623      89.46460724      88.11869049      86.67359924      85.26643372      83.88273621      82.35221100      80.27700806      77.22476959      72.81597900      66.75411224      56.86277008      51.11111069      50.55555725      54.62570190      56.39251328      57.09560776      56.93693542      56.38941574      55.62852478      54.62416458      53.31422043      51.74875641      49.94956207      47.81800079      45.84745407      44.04087067      40.99962997      36.22415924      34.95113373      29.29211807      23.74958992
         105.29252625     104.01184845     102.03530884      98.10408020      90.01431274      84.44444275      83.62719727      81.87342834      80.28450775      78.93200684      78.01248169      77.48957062      76.47556305      74.41047668      71.06285095      66.39675903      59.59486008      51.88072205      49.44444275      50.49948120      51.60012817      52.09242249      51.84635925      51.44017410      51.04969025      50.58082199      49.82624817      48.66368484      47.05564880      44.97275543      42.33663177      39.17969513      38.48136902      34.95113373      29.29211807      23.74958992      20.11955261
         105.53228760     104.49772644     102.19071198      98.24797821      91.94060516      84.44444275      81.66666412      78.88888550      76.11111450      73.33333588      70.55555725      70.00000000      71.86842346      71.38854218      69.09484863      65.55821991      60.71808243      54.16123962      48.33333206      45.55555725      45.00000000      45.59077835      44.97950363      44.55158234      44.52327728      44.76303482      44.97594452      44.24005508      42.82469940      40.82455444      38.32235718      35.34433365      31.82070541      29.29211807      26.27565956      20.11955261      17.02588463
         106.15061951     104.95815277     102.65837860      99.16442108      94.57428741      89.65061951      85.35812378      81.69876099      78.12384796      74.56716919      70.88367462      67.77777863      66.66666412      68.26345062      66.82621765      64.14474487      60.52262115      55.81394577      50.37471771      45.96897125      42.77777863      40.00000000      37.22222137      34.44444275      33.88888931      36.47253418      38.27091599      38.60053635      37.24243927      35.19605255      32.75003815      30.03706741      27.08341408      23.76416206      20.11955261      20.11955261      15.80568409
         106.46109772     105.27696991     103.09618378      99.99404907      96.17173004      92.00321960      87.90203857      84.00646973      80.23651886      76.48960114      72.60894012      68.40460968      65.00000000      64.44444275      64.23639679      62.07209015      59.04927826      55.47606659      51.75616074      47.98077774      44.24906921      40.86238098      37.66863632      34.64134598      31.66666794      29.44444466      30.80040932      31.95338631      30.21158791      27.74527931      25.18944550      22.65516281      20.43550491      18.38151550      16.32099915      14.93202114      15.80568409
         106.42813110     105.17642975     103.03238678     100.09864044      96.53376770      92.54634857      88.38343811      84.23432159      80.21315002      76.34709930      72.61635590      69.01802826      65.21201324      62.22222137      61.23895645      59.22768021      56.48804092      53.10843658      49.71608353      46.67704010      43.68365860      40.47543335      37.46049500      34.44444275      31.86635780      28.88888931      26.11111069      24.78235817      21.66449928      17.77777863      15.00000000      12.22222233      10.55555630      10.59710693       9.92963219       9.27938557      12.05373383
         106.00353241     104.64302063     102.38244629      99.27772522      95.42691803      91.10030365      86.60391235      82.13350677      77.94239044      74.02459717      70.55555725      67.77777863      65.00000000      62.22222137      59.44444275      56.66666794      53.88888931      51.11111069      48.33333206      45.55555725      42.77777863      40.00000000      37.22222137      36.15496063      31.66666794      28.88888931      26.11111069      23.33333206      20.55555534      20.00000000      17.42278481      14.33384705       9.44444466       6.66666651       3.88888884       1.11111104       3.64044738
         105.27056122     103.76230621     101.33724213      97.93894958      93.42872620      88.33638763      83.40344238      78.88888550      76.11111450      73.33333588      71.18558502      69.01943970      66.50132751      63.88359070      60.85033417      57.60947418      54.63008881      51.83272171      48.59815216      45.55555725      45.00000000      46.92776108      46.42558670      44.97849274      42.73672867      40.36610413      37.95243073      35.49191666      33.11457443      30.80833817      27.93769455      24.35643768      19.93776894      14.95295429       9.96566200       7.73176527      12.84685135
         105.08039856     102.44425964      99.99815369      96.43991089      90.91739655      84.44444275      81.66666412      79.63040924      78.16852570      76.33744812      74.09729004      71.45140076      68.46939087      65.27632904      61.66249084      58.00939178      54.48006058      51.11111069      48.33333206      47.22222137      50.96562576      53.32507324      53.78060532      52.81556320      51.26879883      49.36273956      47.22244263      44.88937759      42.37435150      39.59614563      36.38043976      32.64879990      28.47854614      24.16504860      20.38151932      18.48690605      21.01107788
         103.59868622     101.67651367      98.65974426      95.12747192      90.66130066      85.33496857      83.91230011      82.54405212      80.83419800      78.66692352      75.97972870      72.73696899      68.52391815      64.10968018      59.84117126      56.66666794      53.88888931      52.22222137      53.72668076      55.88869858      57.92779922      59.42660522      59.97024155      59.28887177      58.08128738      56.46199417      54.50263214      52.22443771      49.60354614      46.56852341      43.03670120      39.02426147      34.70677185      30.36416817      26.26236916      23.36734200      22.38552666
         103.59868622     100.96144104      98.65974426      94.86888123      91.04132080      88.24512482      86.25640869      84.49988556      82.51707458      80.07183838      76.96694183      72.72767639      65.95950317      62.22222137      59.44444275      58.88888931      59.47963333      59.86957550      61.03429413      62.43316269      63.73913574      64.69684601      65.06093597      64.50473022      63.47613907      62.02780533      60.18647766      57.94366837      55.25304413      52.02412033      48.12842941      43.58039856      38.79989624      33.95093918      33.31681442      26.97802544      23.36734200
         100.96144104      98.65974426      97.10437775      92.69839478      91.39332581      88.69767761      87.02427673      85.33779144      83.17240143      80.65895081      77.39077759      72.74407959      65.00000000      63.88888931      64.17047882      64.50457001      64.89014435      65.47366333      66.33112335      67.31683350      68.22325134      68.87299347      69.05139923      68.54328156      67.61442566      66.27883911      64.52954865      62.32903290      59.61370468      56.28265381      52.08895493      49.06252289      45.19978333      39.18238449      35.65993881      30.98413849      26.97802544
         100.96144104      98.65974426      95.37735748      92.69839478      90.28887939      88.20022583      87.21867371      86.03322601      82.92853546      80.49723053      76.92732239      73.68440247      70.01129150      68.43979645      68.15058136      68.17131042      68.50404358      69.10647583      69.87551880      70.68721771      71.39953613      71.88513184      71.93553162      71.44788361      70.58512115      69.34431458      67.69616699      65.56447601      62.86966324      59.38526535      58.87570190      53.56578064      45.19978333      41.66490173      35.65993881      33.31681442      30.98413849
          98.65974426      97.10437775      92.69839478      91.39332581      90.28887939      88.20022583      86.23340607      84.74906158      82.92853546      79.56042480      76.92732239      74.19193268      71.25926971      70.07136536      69.84031677      69.88458252      70.33023071      71.04479218      71.85427856      72.64981079      73.31381989      73.73072815      73.71149445      73.23657227      72.42575073      71.28643799      69.78900909      67.82201385      66.30842590      64.83912659      62.05468369      58.87570190      53.56578064      41.66490173      35.65993881      35.65993881      30.98413849
          98.65974426      92.69839478      92.69839478      90.28887939      88.20022583      87.21867371      86.23340607      84.74906158      81.32525635      79.56042480      76.92732239      74.19193268      71.48468018      69.99037933      69.93244934      70.30052185      71.39093018      71.77478790      72.81832886      74.00769043      74.07347107      74.42408752      74.37804413      73.90922546      73.12643433      72.08648682      71.51026917      70.19281006      68.55593109      64.83912659      62.05468369      58.87570190      58.87570190      45.19978333      41.66490173      35.65993881      33.31681442
END griddata

