# File generated by Flopy version 3.8.2 on 01/29/2025 at 06:16:28.
BEGIN options
  SAVE_FLOWS
END options

BEGIN packages
  OC6  A01_pleasant.oc  oc
  DIS6  A01_pleasant.dis  dis
  NPF6  A01_pleasant.npf  npf
  IC6  A01_pleasant.ic  ic
  CHD6  A01_pleasant.chd  chd_0
  RCH6  A01_pleasant.rcha  rcha_0
  LAK6  A01_pleasant.lak  lak_0
END packages

