# File generated by Flopy version 3.8.2 on 01/29/2025 at 06:16:28.
BEGIN options
  BUDGET  FILEOUT  A01_pleasant.cbc
  HEAD  FILEOUT  A01_pleasant.hds
END options

BEGIN period  1
  SAVE  head  all
  SAVE  budget  all
END period  1

