# File generated by Flopy version 3.9.1 on 02/17/2025 at 07:33:27.
BEGIN options
END options

BEGIN griddata
  porosity
    CONSTANT       1.95700000
END griddata

