# File generated by Flopy version 3.9.1 on 03/18/2025 at 15:23:13.
BEGIN options
END options

BEGIN timing
  TDIS6  trans.tdis
END timing

BEGIN models
  gwt6  trans.nam  trans
END models

BEGIN exchanges
END exchanges

BEGIN solutiongroup  1
  ims6  trans.ims  trans
END solutiongroup  1

