# File generated by Flopy version 3.9.1 on 03/18/2025 at 15:23:13.
BEGIN options
END options

BEGIN sources
  WEL-1  AUX  CONCENTRATION
END sources

