# File generated by Flopy version 3.9.1 on 03/05/2025 at 07:08:02.
BEGIN options
  SAVE_FLOWS
END options

BEGIN packages
  dis6  gwt-inner.dis  dis
  ic6  gwt-inner.ic  ic
  adv6  gwt-inner.adv  adv
  dsp6  gwt-inner.dsp  dsp-1
  mst6  gwt-inner.mst  mst-1
  ssm6  gwt-inner.ssm  ssm
  oc6  gwt-inner.oc  oc
END packages

