# File generated by Flopy version 3.9.1 on 03/05/2025 at 07:08:02.
BEGIN options
  SCHEME  upstream
END options

