# File generated by Flopy version 3.8.2 on 06/20/2025 at 16:35:46.
BEGIN options
  PRINT_OPTION  summary
  COMPLEXITY  complex
  NO_PTC  ALL
END options

BEGIN nonlinear
  OUTER_DVCLOSE  1.00000000E-06
  OUTER_MAXIMUM  500
END nonlinear

BEGIN linear
  INNER_MAXIMUM  100
  INNER_DVCLOSE  1.00000000E-06
  inner_rclose    1000.00000000
END linear

