# File generated by Flopy version 3.8.2 on 06/20/2025 at 16:35:46.
BEGIN options
END options

BEGIN griddata
  iconvert  LAYERED
    CONSTANT  1
    CONSTANT  1
    CONSTANT  1
    CONSTANT  1
    CONSTANT  1
    CONSTANT  1
    CONSTANT  1
    CONSTANT  1
    CONSTANT  1
    CONSTANT  0
    CONSTANT  0
    CONSTANT  0
    CONSTANT  0
    CONSTANT  0
  ss
    CONSTANT  2.00000000E-04
  sy
    CONSTANT       0.20000000
END griddata

BEGIN period  4
  STEADY-STATE
END period  4

