# File generated by Flopy version 3.9.1 on 05/21/2025 at 07:00:46.
BEGIN options
END options

BEGIN griddata
  strt
    CONSTANT      25.00000000
END griddata

