# File generated by Flopy version 3.9.1 on 05/21/2025 at 07:00:46.
BEGIN options
END options

BEGIN griddata
  iconvert  LAYERED
    CONSTANT  1
    CONSTANT  1
    CONSTANT  1
    CONSTANT  1
    CONSTANT  1
    CONSTANT  1
    CONSTANT  1
    CONSTANT  1
    CONSTANT  1
    CONSTANT  0
    CONSTANT  0
    CONSTANT  0
    CONSTANT  0
    CONSTANT  0
  ss
    CONSTANT  2.00000000E-04
  sy
    CONSTANT       0.20000000
END griddata

BEGIN period  4
  STEADY-STATE
END period  4

