# File generated by Flopy version 3.8.2 on 06/20/2025 at 16:35:46.
BEGIN options
  HEAD  FILEOUT  08_p02.hds
END options

BEGIN period  1
  SAVE  HEAD  LAST
END period  1

