# File generated by Flopy version 3.9.1 on 04/30/2025 at 07:00:21.
BEGIN options
END options

BEGIN griddata
  icelltype  LAYERED
    CONSTANT  1
    CONSTANT  1
    CONSTANT  1
    CONSTANT  1
    CONSTANT  1
    CONSTANT  1
    CONSTANT  1
    CONSTANT  1
    CONSTANT  1
    CONSTANT  0
    CONSTANT  0
    CONSTANT  0
    CONSTANT  0
    CONSTANT  0
  k
    CONSTANT       5.00000000
  k33
    CONSTANT       0.25000000
END griddata

