# Name file for MODFLOW-2005, generated by Flopy version 3.8.2.
#xll:0.0; yll:0.0; rotation:0.0; units:meters; lenuni:2; start_datetime:1-1-1970
LIST               2  B.list
DIS               11  B.dis
BAS6              13  B.bas
LPF               15  B.lpf
RCH               19  B.rch
WEL               20  B.wel
PCG               27  B.pcg
OC                14  B.oc
DATA(BINARY)       1  B.cbc REPLACE
DATA(BINARY)      51  B.hds REPLACE
