# File generated by Flopy version 3.8.2 on 06/20/2025 at 15:16:03.
BEGIN options
END options

BEGIN griddata
  icelltype
    CONSTANT  1
  k
    CONSTANT       1.00000000
END griddata

