# File generated by Flopy version 3.9.1 on 04/09/2025 at 14:53:20.
BEGIN options
END options

BEGIN dimensions
  MAXBOUND  3
END dimensions

BEGIN period  1
  1 46 80 24
  1 47 80 24
  1 48 80 24
END period  1

