# File generated by Flopy version 3.9.1 on 04/09/2025 at 14:53:20.
BEGIN options
END options

BEGIN griddata
  icelltype
    CONSTANT  1
  k
    CONSTANT       1.00000000
END griddata

