# File generated by Flopy version 3.9.1 on 04/09/2025 at 14:53:20.
BEGIN options
  HEAD  FILEOUT  09_nwt_p03.hds
END options

BEGIN period  1
  SAVE  HEAD  ALL
END period  1

