# File generated by Flopy version 3.9.1 on 04/09/2025 at 14:53:20.
BEGIN options
  PRINT_OPTION  all
  COMPLEXITY  simple
END options

BEGIN nonlinear
  OUTER_DVCLOSE  1.00000000E-09
  OUTER_MAXIMUM  500
END nonlinear

BEGIN linear
  INNER_MAXIMUM  500
  INNER_DVCLOSE  1.00000000E-09
  inner_rclose  1.00000000E-06
  LINEAR_ACCELERATION  bicgstab
END linear

