# File generated by Flopy version 3.9.1 on 04/09/2025 at 14:53:20.
BEGIN options
  TIME_UNITS  days
END options

BEGIN dimensions
  NPER  1
END dimensions

BEGIN perioddata
     365.00000000  1       1.00000000
END perioddata

