# sgn_50 model version 0.post16.dev0+ge733124
# File generated by Flopy version 3.10.0.dev1 on 02/01/2025 at 06:12:19.
# via modflow-setup version 0.6.0 at 2025-02-01 06:12:19
BEGIN options
END options

BEGIN griddata
  strt  LAYERED
    OPEN/CLOSE  '.\.\DTM_domain.tif'  FACTOR  1.0
    OPEN/CLOSE  '.\.\DTM_domain.tif'  FACTOR  1.0
    OPEN/CLOSE  '.\.\DTM_domain.tif'  FACTOR  1.0
END griddata

