# File generated by Flopy version 3.10.0.dev3 on 06/15/2025 at 08:27:31.
BEGIN options
END options

BEGIN dimensions
  NPER  1
END dimensions

BEGIN perioddata
       1.00000000  1       1.00000000
END perioddata

