# File generated by Flopy version 3.8.2 on 01/20/2025 at 14:30:20.
BEGIN options
  BUDGET  FILEOUT  symp03.cbb
  HEAD  FILEOUT  symp03.hds
END options

BEGIN period  1
  SAVE  HEAD  ALL
  SAVE  BUDGET  ALL
  PRINT  HEAD  LAST
END period  1

