# File generated by Flopy version 3.9.1 on 05/09/2025 at 09:00:35.
BEGIN options
END options

BEGIN griddata
  strt
    CONSTANT      10.00000000
END griddata

