# Name file for MT3DMS, generated by Flopy version 3.9.1.
LIST              16  linear_mt.list
FTL               10  mt3d_link.ftl 
BTN               31  linear_mt.btn
ADV               32  linear_mt.adv
DSP               33  linear_mt.dsp
SSM               34  linear_mt.ssm
RCT               36  linear_mt.rct
GCG               35  linear_mt.gcg
