# File generated by Flopy version 3.9.1 on 04/09/2025 at 10:32:34.
BEGIN options
END options

BEGIN dimensions
  MAXBOUND  395
END dimensions

BEGIN period  1
  10 1 40 25
  10 2 40 25
  10 3 40 25
  10 4 40 25
  10 5 40 25
  10 6 40 25
  10 7 40 25
  10 8 40 25
  10 9 40 25
  10 10 40 25
  10 11 40 25
  10 12 40 25
  10 13 40 25
  10 14 40 25
  10 15 40 25
  10 16 40 25
  10 17 40 25
  10 18 40 25
  10 19 40 25
  10 20 40 25
  10 21 40 25
  10 22 40 25
  10 23 40 25
  10 24 40 25
  10 25 40 25
  10 26 40 25
  10 27 40 25
  10 28 40 25
  10 29 40 25
  10 30 40 25
  10 31 40 25
  10 32 40 25
  10 33 40 25
  10 34 40 25
  10 35 40 25
  10 36 40 25
  10 37 40 25
  10 38 40 25
  10 39 40 25
  10 40 1 25
  10 40 2 25
  10 40 3 25
  10 40 4 25
  10 40 5 25
  10 40 6 25
  10 40 7 25
  10 40 8 25
  10 40 9 25
  10 40 10 25
  10 40 11 25
  10 40 12 25
  10 40 13 25
  10 40 14 25
  10 40 15 25
  10 40 16 25
  10 40 17 25
  10 40 18 25
  10 40 19 25
  10 40 20 25
  10 40 21 25
  10 40 22 25
  10 40 23 25
  10 40 24 25
  10 40 25 25
  10 40 26 25
  10 40 27 25
  10 40 28 25
  10 40 29 25
  10 40 30 25
  10 40 31 25
  10 40 32 25
  10 40 33 25
  10 40 34 25
  10 40 35 25
  10 40 36 25
  10 40 37 25
  10 40 38 25
  10 40 39 25
  10 40 40 25
  11 1 40 25
  11 2 40 25
  11 3 40 25
  11 4 40 25
  11 5 40 25
  11 6 40 25
  11 7 40 25
  11 8 40 25
  11 9 40 25
  11 10 40 25
  11 11 40 25
  11 12 40 25
  11 13 40 25
  11 14 40 25
  11 15 40 25
  11 16 40 25
  11 17 40 25
  11 18 40 25
  11 19 40 25
  11 20 40 25
  11 21 40 25
  11 22 40 25
  11 23 40 25
  11 24 40 25
  11 25 40 25
  11 26 40 25
  11 27 40 25
  11 28 40 25
  11 29 40 25
  11 30 40 25
  11 31 40 25
  11 32 40 25
  11 33 40 25
  11 34 40 25
  11 35 40 25
  11 36 40 25
  11 37 40 25
  11 38 40 25
  11 39 40 25
  11 40 1 25
  11 40 2 25
  11 40 3 25
  11 40 4 25
  11 40 5 25
  11 40 6 25
  11 40 7 25
  11 40 8 25
  11 40 9 25
  11 40 10 25
  11 40 11 25
  11 40 12 25
  11 40 13 25
  11 40 14 25
  11 40 15 25
  11 40 16 25
  11 40 17 25
  11 40 18 25
  11 40 19 25
  11 40 20 25
  11 40 21 25
  11 40 22 25
  11 40 23 25
  11 40 24 25
  11 40 25 25
  11 40 26 25
  11 40 27 25
  11 40 28 25
  11 40 29 25
  11 40 30 25
  11 40 31 25
  11 40 32 25
  11 40 33 25
  11 40 34 25
  11 40 35 25
  11 40 36 25
  11 40 37 25
  11 40 38 25
  11 40 39 25
  11 40 40 25
  12 1 40 25
  12 2 40 25
  12 3 40 25
  12 4 40 25
  12 5 40 25
  12 6 40 25
  12 7 40 25
  12 8 40 25
  12 9 40 25
  12 10 40 25
  12 11 40 25
  12 12 40 25
  12 13 40 25
  12 14 40 25
  12 15 40 25
  12 16 40 25
  12 17 40 25
  12 18 40 25
  12 19 40 25
  12 20 40 25
  12 21 40 25
  12 22 40 25
  12 23 40 25
  12 24 40 25
  12 25 40 25
  12 26 40 25
  12 27 40 25
  12 28 40 25
  12 29 40 25
  12 30 40 25
  12 31 40 25
  12 32 40 25
  12 33 40 25
  12 34 40 25
  12 35 40 25
  12 36 40 25
  12 37 40 25
  12 38 40 25
  12 39 40 25
  12 40 1 25
  12 40 2 25
  12 40 3 25
  12 40 4 25
  12 40 5 25
  12 40 6 25
  12 40 7 25
  12 40 8 25
  12 40 9 25
  12 40 10 25
  12 40 11 25
  12 40 12 25
  12 40 13 25
  12 40 14 25
  12 40 15 25
  12 40 16 25
  12 40 17 25
  12 40 18 25
  12 40 19 25
  12 40 20 25
  12 40 21 25
  12 40 22 25
  12 40 23 25
  12 40 24 25
  12 40 25 25
  12 40 26 25
  12 40 27 25
  12 40 28 25
  12 40 29 25
  12 40 30 25
  12 40 31 25
  12 40 32 25
  12 40 33 25
  12 40 34 25
  12 40 35 25
  12 40 36 25
  12 40 37 25
  12 40 38 25
  12 40 39 25
  12 40 40 25
  13 1 40 25
  13 2 40 25
  13 3 40 25
  13 4 40 25
  13 5 40 25
  13 6 40 25
  13 7 40 25
  13 8 40 25
  13 9 40 25
  13 10 40 25
  13 11 40 25
  13 12 40 25
  13 13 40 25
  13 14 40 25
  13 15 40 25
  13 16 40 25
  13 17 40 25
  13 18 40 25
  13 19 40 25
  13 20 40 25
  13 21 40 25
  13 22 40 25
  13 23 40 25
  13 24 40 25
  13 25 40 25
  13 26 40 25
  13 27 40 25
  13 28 40 25
  13 29 40 25
  13 30 40 25
  13 31 40 25
  13 32 40 25
  13 33 40 25
  13 34 40 25
  13 35 40 25
  13 36 40 25
  13 37 40 25
  13 38 40 25
  13 39 40 25
  13 40 1 25
  13 40 2 25
  13 40 3 25
  13 40 4 25
  13 40 5 25
  13 40 6 25
  13 40 7 25
  13 40 8 25
  13 40 9 25
  13 40 10 25
  13 40 11 25
  13 40 12 25
  13 40 13 25
  13 40 14 25
  13 40 15 25
  13 40 16 25
  13 40 17 25
  13 40 18 25
  13 40 19 25
  13 40 20 25
  13 40 21 25
  13 40 22 25
  13 40 23 25
  13 40 24 25
  13 40 25 25
  13 40 26 25
  13 40 27 25
  13 40 28 25
  13 40 29 25
  13 40 30 25
  13 40 31 25
  13 40 32 25
  13 40 33 25
  13 40 34 25
  13 40 35 25
  13 40 36 25
  13 40 37 25
  13 40 38 25
  13 40 39 25
  13 40 40 25
  14 1 40 25
  14 2 40 25
  14 3 40 25
  14 4 40 25
  14 5 40 25
  14 6 40 25
  14 7 40 25
  14 8 40 25
  14 9 40 25
  14 10 40 25
  14 11 40 25
  14 12 40 25
  14 13 40 25
  14 14 40 25
  14 15 40 25
  14 16 40 25
  14 17 40 25
  14 18 40 25
  14 19 40 25
  14 20 40 25
  14 21 40 25
  14 22 40 25
  14 23 40 25
  14 24 40 25
  14 25 40 25
  14 26 40 25
  14 27 40 25
  14 28 40 25
  14 29 40 25
  14 30 40 25
  14 31 40 25
  14 32 40 25
  14 33 40 25
  14 34 40 25
  14 35 40 25
  14 36 40 25
  14 37 40 25
  14 38 40 25
  14 39 40 25
  14 40 1 25
  14 40 2 25
  14 40 3 25
  14 40 4 25
  14 40 5 25
  14 40 6 25
  14 40 7 25
  14 40 8 25
  14 40 9 25
  14 40 10 25
  14 40 11 25
  14 40 12 25
  14 40 13 25
  14 40 14 25
  14 40 15 25
  14 40 16 25
  14 40 17 25
  14 40 18 25
  14 40 19 25
  14 40 20 25
  14 40 21 25
  14 40 22 25
  14 40 23 25
  14 40 24 25
  14 40 25 25
  14 40 26 25
  14 40 27 25
  14 40 28 25
  14 40 29 25
  14 40 30 25
  14 40 31 25
  14 40 32 25
  14 40 33 25
  14 40 34 25
  14 40 35 25
  14 40 36 25
  14 40 37 25
  14 40 38 25
  14 40 39 25
  14 40 40 25
END period  1

