# File generated by Flopy version 3.8.2 on 01/08/2025 at 16:23:58.
BEGIN options
  READASARRAYS
END options

BEGIN period  1
  irch
    OPEN/CLOSE  '../data/irch.dat'  FACTOR  1
  recharge
    OPEN/CLOSE  '../data/rch_000.dat'  FACTOR  1.0
END period  1

