# File generated by Flopy version 3.8.2 on 01/09/2025 at 07:24:17.
BEGIN options
END options

BEGIN timing
  TDIS6  B_pleasant.tdis
END timing

BEGIN models
  gwf6  B_pleasant.nam  B_pleasant
END models

BEGIN exchanges
END exchanges

BEGIN solutiongroup  1
  ims6  B_pleasant.ims  B_pleasant
END solutiongroup  1

