# File generated by Flopy version 3.8.0 on 09/01/2024 at 11:52:23.
BEGIN options
  BUDGET  FILEOUT  ngwm.cbc
  HEAD  FILEOUT  ngwm.hds
END options

BEGIN period  1
  SAVE  head  all
  SAVE  budget  all
  PRINT  budget  all
END period  1

