# File generated by Flopy version 3.8.0 on 09/01/2024 at 11:52:20.
BEGIN options
END options

BEGIN dimensions
  MAXBOUND  75806
END dimensions

BEGIN period  1
    OPEN/CLOSE  'external/ngwm.ghb_stress_period_data_1.bin'  (BINARY)
END period  1

