# File generated by Flopy version 3.9.1 on 07/09/2025 at 15:36:37.
BEGIN options
  XORIGIN       0.00000000
  YORIGIN       0.00000000
END options

BEGIN dimensions
  NLAY  5
  NROW  41
  NCOL  73
END dimensions

BEGIN griddata
  delr
    CONSTANT    2500.00000000
  delc
    CONSTANT    2500.00000000
  top
    INTERNAL  FACTOR  1.0
       101.72914124     101.09039307     101.09845734     101.13024139     101.22142792     101.25666046     101.25666046     101.25666046     101.28726959     101.28726959     101.23593903     101.23593903     101.02922058     101.02922058     100.70333862     100.61952209      99.61818695      99.61818695      99.06137085      97.70894623      97.52515411      96.95259857      95.87101746      95.09060669      94.44600677      92.22425842      90.56587982      90.18769073      87.03125000      87.03125000      83.31587219      83.31587219      80.09763336      75.64496613      75.64496613      70.97997284      70.97997284      67.70229340      67.19194031      67.00645447      67.00645447      66.32443237      66.26735687      66.26735687      65.70725250      65.70725250      65.15328217      65.15328217      63.83684158      63.83684158      62.15637970      62.15637970      62.15637970      60.18175125      60.18175125      59.30734634      58.35778427      52.93722153      52.93722153      52.93722153      51.20437241      51.20437241      51.20437241      51.20437241      50.16458130      48.97345734      47.71946335      47.71946335      47.71946335      47.71946335      44.04087067      44.04087067      40.99962997
       101.72914124     101.72914124     101.09039307     101.09845734     101.13024139     101.22142792     101.25666046     101.25666046     101.25666046     101.28726959     101.23593903     101.23593903     101.23593903     101.02922058     100.70333862     100.61952209      99.61818695      99.61818695      99.06137085      97.70894623      97.52515411      96.95259857      95.87101746      95.09060669      94.44600677      92.22425842      90.56587982      90.18769073      87.03125000      87.03125000      83.31587219      80.09763336      80.09763336      75.64496613      71.40554810      70.97997284      70.97997284      67.70229340      67.19194031      67.00645447      67.00645447      66.32443237      66.26735687      66.26735687      65.70725250      65.15328217      65.15328217      64.65097809      63.83684158      63.83684158      62.15637970      62.15637970      60.18175125      60.18175125      60.18175125      59.30734634      58.35778427      52.93722153      52.93722153      52.93722153      51.20437241      51.20437241      51.20437241      50.16458130      48.97345734      47.71946335      47.71946335      47.71946335      47.71946335      47.71946335      44.04087067      40.99962997      40.99962997
       102.49778748     101.72914124     101.72914124     101.09039307     101.09845734     101.13024139     101.22142792     101.25666046     101.25666046     101.28726959     101.28726959     101.23593903     101.23593903     101.02922058     100.70333862     100.61952209     100.14676666      99.58812714      99.11627960      98.42719078      97.62367058      96.83317184      95.90703964      94.87867737      93.58907700      92.05834389      90.64696693      88.90360260      87.03125000      84.60424805      83.31587219      80.09763336      76.24244690      75.64496613      71.40554810      70.97997284      68.26151276      67.70229340      67.19194031      67.00645447      67.00645447      66.32443237      66.26735687      65.70725250      65.70725250      65.15328217      65.15328217      63.83684158      63.83684158      63.17837143      62.15637970      62.15637970      60.18175125      60.18175125      59.30734634      58.35778427      52.93722153      52.93722153      52.93722153      51.20437241      51.20437241      51.20437241      51.20437241      50.16458130      48.97345734      47.71946335      47.71946335      47.71946335      47.71946335      44.04087067      40.99962997      40.99962997      40.99962997
       102.49778748     102.49778748     101.72914124     101.11743927     101.09039307     101.09845734     101.13024139     101.22142792     101.25666046     101.25666046     101.28726959     101.25476837     101.23593903     101.13008118     100.87362099     100.55167007     100.12624550      99.59672546      98.99747658      98.29632759      97.50144577      96.62433434      95.63648796      94.51799202      93.21508598      91.74962616      90.17319870      88.39156342      86.45440674      84.25304794      82.04062843      80.09763336      76.24244690      75.64496613      71.40554810      70.97997284      68.26151276      67.70229340      67.19194031      67.00645447      67.00645447      66.32443237      66.26735687      65.70725250      65.70725250      65.15328217      64.65097809      63.83684158      63.83684158      62.15637970      62.15637970      61.36823273      60.18175125      60.18175125      59.30734634      58.35778427      52.93722153      52.93722153      52.93722153      51.20437241      51.20437241      51.20437241      50.16458130      48.97345734      47.71946335      47.71946335      47.71946335      47.71946335      44.04087067      44.04087067      40.99962997      40.99962997      40.99962997
       102.49778748     102.49778748     101.72914124     101.72914124     101.11743927     101.09039307     101.09845734     101.13024139     101.22142792     101.25666046     101.26985931     101.27209473     101.18500137     100.99054337     100.70263100     100.32287216      99.85975075      99.30881310      98.67218018      97.94681358      97.12687302      96.20763969      95.17629623      94.00618935      92.68157387      91.19507980      89.54513359      87.71474266      85.69062614      83.48580933      81.11656189      78.60345078      76.04472542      73.51099968      71.49675941      69.71296692      68.26151276      67.70229340      67.19194031      67.00645447      66.48759460      66.32443237      66.26735687      65.70725250      65.15328217      65.15328217      64.65097809      63.83684158      63.17837143      62.15637970      62.15637970      60.18175125      60.18175125      59.30734634      58.35778427      58.35778427      52.93722153      52.93722153      52.93722153      51.20437241      51.20437241      51.20437241      50.16458130      48.97345734      47.71946335      47.71946335      47.71946335      44.04087067      44.04087067      40.99962997      40.99962997      40.99962997      36.22415924
       102.76670074     102.49778748     102.49778748     101.72914124     101.72914124     101.11743927     101.09039307     101.09845734     101.13024139     101.22142792     101.21099854     101.11575508     100.92962456     100.65481377     100.30346107      99.87546921      99.36774254      98.78618813      98.12035370      97.37088013      96.52769852      95.58259964      94.51944542      93.32225990      91.97274780      90.45553207      88.75768471      86.86601830      84.76544380      82.47023201      79.97967720      77.38485336      74.80549049      72.44614410      70.52725601      69.03093910      68.01521683      67.39471436      67.01185989      66.73127365      66.45563507      66.24124908      65.88309479      65.70725250      65.15328217      64.65097809      63.83684158      63.83684158      63.17837143      62.15637970      61.36823273      60.18175125      60.18175125      59.30734634      58.35778427      55.99590683      52.93722153      52.93722153      52.93722153      51.20437241      51.20437241      50.16458130      48.97345734      47.71946335      47.71946335      47.71946335      47.71946335      44.04087067      40.99962997      40.99962997      40.99962997      36.22415924      36.22415924
       103.05901337     102.76670074     102.49778748     102.49778748     101.72914124     101.72914124     101.11743927     101.09039307     101.09845734     101.09253693     100.96558762     100.73950577     100.45031166     100.08860207      99.66713142      99.18452072      98.63896751      98.02343941      97.33522415      96.56574249      95.70754433      94.74692154      93.66972160      92.45800209      91.09246063      89.55175591      87.81788063      85.86879349      83.68199921      81.25483322      78.59710503      75.76194191      72.93645096      70.47756767      68.68188286      67.57619286      66.88293457      66.53072929      66.31436539      66.16931152      66.02490997      65.86084175      65.64036560      65.35603523      64.99370956      64.65097809      63.83684158      63.17837143      62.15637970      62.15637970      61.36823273      60.18175125      59.30734634      58.35778427      58.35778427      55.99590683      52.93722153      52.93722153      51.20437241      51.20437241      51.20437241      50.16458130      48.97345734      47.71946335      47.71946335      47.71946335      44.04087067      44.04087067      40.99962997      40.99962997      36.22415924      36.22415924      36.22415924
       103.35204315     103.05901337     102.76670074     102.49778748     101.97846222     101.72914124     101.33309174     101.11743927     101.02107620     100.81490517     100.49961281     100.12651634      99.71706009      99.26927376      98.77642059      98.24547386      97.65771484      97.01585007      96.30702019      95.52537727      94.65980339      93.69690704      92.62041664      91.40985680      90.04345131      88.49570656      86.73777008      84.74321747      82.46779251      79.89788437      76.97715950      73.74371719      70.26810074      67.34611702      65.76214218      65.20637703      65.11129761      65.10098076      65.17089653      65.22540092      65.23344040      65.17239952      65.03504181      64.81122780      64.49341774      64.06014633      63.54404163      62.93868256      62.15637970      61.36823273      60.18175125      60.18175125      59.30734634      58.35778427      55.99590683      53.80909348      52.93722153      52.93722153      51.20437241      51.20437241      50.16458130      48.97345734      47.71946335      47.71946335      47.71946335      44.04087067      44.04087067      40.99962997      40.99962997      40.99962997      36.22415924      36.22415924      36.22415924
       103.61625671     103.35204315     103.05901337     102.76670074     102.49778748     101.97846222     101.59832764     101.16960335     100.77330971     100.29827499      99.77105522      99.23448181      98.70352936      98.16734886      97.61483955      97.03079414      96.41285706      95.74554253      95.02383995      94.23856544      93.37697601      92.42727470      91.36630440      90.17675781      88.82905006      87.29631805      85.53878784      83.51897430      81.18855286      78.47635269      75.28614998      71.45097733      66.89158440      61.93691254      61.43119526      62.11657143      62.76666546      63.26369381      63.66489506      63.95014858      64.11717796      64.18112755      64.13102150      63.98573589      63.72699642      63.36891937      62.90994358      62.34877872      61.69836235      60.93109035      60.16608143      59.30734634      58.35778427      57.69561386      55.99590683      53.80909348      52.93722153      52.93722153      51.20437241      51.20437241      50.16458130      48.97345734      47.71946335      47.71946335      44.04087067      44.04087067      40.99962997      40.99962997      40.99962997      36.22415924      36.22415924      36.22415924      29.29211807
       103.61625671     103.61625671     103.35204315     103.05901337     102.76670074     102.34726715     101.68013954     101.02202225     100.28102303      99.51992607      98.74388123      98.03139877      97.37472534      96.75948334      96.14964676      95.53144646      94.88330650      94.19923210      93.47178650      92.69183159      91.84751511      90.92341232      89.90377617      88.75359154      87.45526123      85.96207428      84.24006844      82.23615265      79.89166641      77.12025452      73.77708435      69.61396408      63.94844246      55.76970863      56.45668411      58.71074677      60.14219952      61.11698341      61.86081409      62.38502598      62.72534275      62.90066433      62.95175266      62.87054729      62.68211365      62.38583469      61.99581146      61.50672150      60.93186474      60.26144123      59.52796364      58.69809628      57.86115646      56.27931976      55.99590683      53.80909348      52.93722153      52.93722153      51.20437241      50.16458130      48.97345734      47.71946335      47.71946335      47.71946335      44.04087067      44.04087067      40.99962997      40.99962997      36.22415924      36.22415924      36.22415924      29.29211807      29.29211807
       104.34490204     103.61625671     103.61625671     103.35204315     102.95955658     102.37607193     101.59584236     100.64277077      99.55579758      98.38195992      97.33213234      96.42414284      95.67505074      95.01021194      94.36967278      93.72187996      93.05449867      92.35856438      91.63141632      90.86636543      90.05192947      89.17827606      88.21462631      87.14025497      85.91341782      84.50145340      82.85122299      80.91790962      78.62547874      75.90876198      72.62084961      68.56877708      63.46476936      57.39170551      53.52914906      55.58083439      57.40794277      58.82580757      59.87263203      60.59890366      61.08473301      61.36918926      61.49460316      61.48059273      61.34763050      61.11121082      60.77743149      60.35866356      59.85800838      59.27753830      58.61298561      57.85392094      56.94939137      55.89697266      54.69866562      53.69454193      52.92079639      51.76757050      51.20437241      50.16458130      48.97345734      47.71946335      47.71946335      44.04087067      44.04087067      40.99962997      40.99962997      36.22415924      36.22415924      36.22415924      29.29211807      29.29211807      29.29211807
       104.34490204     104.34490204     104.07053375     103.65130424     103.17970085     102.41515160     101.38834572     100.09602356      98.51792908      96.88251114      95.37193108      94.32301140      93.55970001      92.90098381      92.25641060      91.59276962      90.90618896      90.20214653      89.48126221      88.73991203      87.97240067      87.15719223      86.28355408      85.30802155      84.20502281      82.90736389      81.37679863      79.56023598      77.40531158      74.82805443      71.77275276      68.08196068      63.81030083      58.94784927      54.06373978      52.24472141      54.67227364      56.47532558      57.76418972      58.65035152      59.23679447      59.59377766      59.77426338      59.80634022      59.72008419      59.52906418      59.25089359      58.89444637      58.46283054      57.95964622      57.38472176      56.71835136      55.95241833      55.08718109      54.15186882      53.23578262      52.32732487      51.36640263      50.38283253      49.29340744      47.71946335      47.71946335      45.84745407      44.04087067      40.99962997      40.99962997      39.85358047      36.22415924      36.22415924      34.95113373      29.29211807      29.29211807      23.74958992
       104.73616028     104.73616028     104.34490204     103.99602509     103.35825729     102.41401863     101.13122940      99.45539093      97.37352180      94.74787903      92.58690643      91.59157181      90.99964523      90.43496132      89.81321526      89.13293076      88.42135048      87.70345306      86.98921204      86.27989960      85.56473732      84.84402657      84.09160423      83.25979996      82.31165314      81.18570900      79.82185936      78.17696762      76.21021652      73.86469841      71.06628990      67.84998131      64.15320873      60.12419987      56.04084587      52.20628834      52.21159172      54.22836876      55.62492275      56.57087326      57.19331551      57.57992268      57.78460312      57.84369850      57.78438282      57.62853336      57.39054203      57.09198284      56.72792149      56.31243992      55.83115292      55.28710365      54.64621353      53.93540573      53.15955830      52.33849335      51.46964073      50.54849339      49.55514622      48.46643066      47.32155418      45.84745407      44.04087067      42.94796753      40.99962997      39.85358047      36.22415924      36.22415924      34.95113373      29.29211807      29.29211807      23.74958992      23.74958992
       105.29252625     104.82328033     104.71783257     104.27186584     103.51413155     102.42707825     100.95470619      99.00072861      96.30339813      92.43929291      87.80183983      88.13525391      88.08778763      87.67280579      87.06546021      86.33447075      85.56327629      84.82860947      84.12331200      83.44058990      82.80158806      82.19087219      81.59368515      80.95822906      80.23468018      79.30728912      78.17651176      76.73827744      75.00009537      72.89978790      70.45022011      67.59659576      64.38735676      60.89731216      57.23904800      53.41691399      50.13888931      52.14377308      53.48764992      54.37707710      54.95786667      55.32055092      55.51710224      55.57551575      55.52199745      55.38121891      55.17477798      54.92004967      54.63383484      54.30620480      53.93874741      53.50920582      53.00880527      52.43081665      51.78062916      51.05238628      50.25157547      49.36633301      48.38958454      47.30707264      46.10150814      44.65957355      42.94796753      40.99962997      39.85358047      36.22415924      36.22415924      34.95113373      29.29211807      29.29211807      29.29211807      23.74958992      20.11955261
       105.29252625     105.29252625     105.07166862     104.54012489     103.70035744     102.51485062     100.93137741      98.85268974      96.06932449      92.25388908      87.71578217      84.86111069      85.23900604      84.67776489      84.07396507      83.19430161      82.27869034      81.54077148      80.84311104      80.17084503      79.60716629      79.12045288      78.74215126      78.40900612      77.94936943      77.31710434      76.41631508      75.26084709      73.76740074      71.93965340      69.77019691      67.27908134      64.46515846      61.41028118      58.09192944      54.53338909      50.61876202      50.24321365      51.36132240      52.04538250      52.49066639      52.78688240      52.94829082      52.98031521      52.90834427      52.75977516      52.56580830      52.35278606      52.13107872      51.90819454      51.65494633      51.37041283      51.01406288      50.58506584      50.05011940      49.41649246      48.68115616      47.84344578      46.89085865      45.82005310      44.61515903      43.25593567      41.73305321      40.14879990      38.48136902      36.22415924      34.95113373      33.47934341      29.29211807      29.29211807      23.74958992      23.74958992      20.11955261
       106.12169647     105.89523315     105.40356255     104.80497169     103.90668869     102.68105125     101.08498955      99.04924202      96.50223923      93.41347313      89.99579239      86.65046310      84.27667046      82.27828026      80.96848869      79.68819046      78.35033035      77.92341614      77.14462852      76.30382919      75.94289017      75.48852348      75.48574829      75.53356934      75.48132515      75.16133308      74.58961105      73.69158554      72.48738670      70.92067337      69.06289101      66.86081314      64.40867996      61.65763950      58.70450878      55.46007824      51.94884109      49.02124977      49.15486431      49.48582458      49.71229553      49.93727303      50.05569839      50.03948307      49.91186237      49.72458363      49.51764297      49.32637024      49.17744827      49.06879139      48.98077869      48.85774517      48.67329884      48.37651825      47.97821045      47.43833733      46.77588844      45.98288918      45.06001949      44.00960636      42.82618523      41.50480556      40.04931736      38.44923115      36.63216496      34.95113373      33.47934341      29.29211807      29.29211807      23.74958992      23.74958992      20.11955261      20.11955261
       106.34687805     106.09337234     105.69219208     105.04823685     104.12843704     102.90418625     101.35292625      99.45505905      97.17071533      94.57934570      91.79848671      89.09489441      86.68756104      84.54389763      82.72404861      81.04841423      79.29547501      77.49973297      75.88121796      73.91522408      72.50474739      70.97222519      71.78060722      72.42829323      72.82909393      72.94762230      72.70048141      72.10437584      71.14557648      69.86028099      68.23641014      66.33585739      64.16407299      61.74716568      59.08020878      56.24000072      53.12663555      49.96133327      47.58828449      46.59601974      46.39132977      46.73110580      46.83437634      46.71594143      46.50871754      46.21604347      45.96521664      45.76983643      45.68093014      45.73058319      45.83837032      45.94029331      45.95089531      45.84127998      45.56966019      45.14195251      44.54358101      43.79217720      42.89442348      41.86286736      40.70203018      39.41753292      38.01075649      36.47469139      34.81149101      33.02515030      29.89176750      29.29211807      26.27565956      23.74958992      20.11955261      20.11955261      17.02588463
       106.36669159     106.28473282     105.90569496     105.25901222     104.34196091     103.14333916     101.66307831      99.88550758      97.84852028      95.57631493      93.19166374      90.81368065      88.54991722      86.45492554      84.52003479      82.68471527      80.86518669      79.06731033      77.28476524      75.47845650      73.68853378      71.76864052      69.58333206      68.83906937      70.06088066      70.67301559      70.77977943      70.46696854      69.76879692      68.70291328      67.34484100      65.67012405      63.76424503      61.60991287      59.25539494      56.73362732      54.13352966      51.50740814      49.11567593      46.98042870      44.94789696      43.44537544      43.37361622      42.93981647      42.67999268      42.13375854      41.84992027      41.57727051      41.52027321      41.82476902      42.22940636      42.62580872      42.90377903      42.98054409      42.86367226      42.52814865      41.99322224      41.26952744      40.38468933      39.35996342      38.21306610      36.95529270      35.59804726      34.13181210      32.56412792      30.85545015      28.98723173      27.08230829      23.74958992      22.36495781      20.11955261      20.11955261      17.02588463
       106.51152039     106.44571495     106.06975746     105.42697144     104.52304840     103.36258316     101.94179153     100.28533936      98.41010475      96.36398315      94.20949173      92.02602959      89.87996292      87.81737328      85.84416389      83.93562698      82.06569099      80.21551895      78.37561226      76.52749825      74.65546417      72.70726967      70.66285515      68.53992844      67.62873840      68.50755692      68.91226578      68.83775520      68.34844589      67.50465202      66.32471466      64.88241959      63.17634773      61.25595570      59.15800095      56.94766235      54.63448906      52.35406685      50.15655231      48.08870316      46.08121204      44.12688160      42.38251305      40.53732204      39.12689495      37.63888931      37.51133347      36.50035954      36.27034187      37.25838184      38.08743858      38.91616154      39.51968765      39.85114098      39.88111877      39.63575745      39.13433552      38.41419601      37.51450157      36.47248363      35.32118225      34.08004761      32.75877285      31.36960793      29.90664387      28.37567806      26.73149920      24.97268677      23.06769323      20.63467407      20.11955261      17.02588463      15.80568409
       106.75563049     106.58150673     106.18514061     105.54239273     104.65299416     103.51958084     102.15748024     100.58088493      98.82418633      96.91029739      94.89596558      92.83150482      90.76454544      88.72740173      86.73618317      84.79055595      82.87523079      80.98244476      79.10294914      77.21981239      75.31689453      73.36845016      71.35187149      69.23971367      66.92765999      66.61311913      67.10312462      67.21284294      66.91229439      66.21866989      65.21289825      63.92282867      62.39978600      60.66845226      58.78231335      56.78177166      54.72100544      52.65092945      50.62906647      48.68186760      46.79391193      44.97074795      43.23463345      41.56203556      39.97505093      38.37827015      36.82256126      35.29757881      33.65045166      32.67286205      33.36892605      34.80891609      35.90849113      36.48298264      36.66532040      36.48322582      35.98257351      35.21776104      34.25226021      33.16140079      31.97799873      30.73299074      29.44179344      28.11675453      26.77671766      25.42104626      24.03121710      22.55325651      21.04777670      19.45707035      17.43581581      17.02588463      15.80568409
       106.79226685     106.63977242     106.23821831     105.59340668     104.71114349     103.59961891     102.27337837     100.75260353      99.06037331      97.23142433      95.29038048      93.28919029      91.26088905      89.23440933      87.22868729      85.24938774      83.30039024      81.37088776      79.46072197      77.55693626      75.64609146      73.71259117      71.73632050      69.69599915      67.55681038      65.41666794      65.32912636      65.64724350      65.45361900      64.88134003      63.98004532      62.82129192      61.42690849      59.84396744      58.10203075      56.25356960      54.35628319      52.45164299      50.58111382      48.76482582      46.99239159      45.27343941      43.59254360      41.95633030      40.36259937      38.78958321      37.23427773      35.68439293      34.09559441      32.47009659      30.77128887      30.77048159      32.20527887      32.97417450      33.27066898      33.12042236      32.56153774      31.66676569      30.56286049      29.35845423      28.11734390      26.84851122      25.56468391      24.29342890      23.06110096      21.90917969      20.78440714      19.66090775      18.51569843      17.35639620      16.25615501      15.47999215      15.49600315
       106.78748322     106.63230133     106.22091293     105.57012367     104.68689537     103.58262062     102.27187157     100.77474403      99.11571312      97.31713295      95.41015053      93.42810631      91.40471268      89.36892319      87.33599281      85.32444191      83.33704758      81.37924194      79.44351768      77.52721024      75.62232208      73.71731186      71.80087662      69.86660576      67.90367126      65.90295219      64.02777767      64.15428162      63.99283409      63.46045589      62.62023354      61.53173065      60.23953724      58.75035858      57.10754490      55.35602951      53.56702805      51.78592587      50.04915428      48.36123276      46.70742512      45.07006073      43.45370102      41.84497166      40.27072906      38.70968914      37.15632534      35.63949394      34.14446831      32.62993336      31.06258535      29.41195154      28.38202286      29.39315033      29.77075481      29.61400509      28.91563988      27.78192663      26.34334850      24.98013306      23.65744019      22.34347343      21.03635883      19.76816750      18.62618208      17.72286320      16.95318794      16.18413830      15.38748503      14.62551856      13.93295765      13.49338889      13.19070244
       106.74855042     106.56345177     106.13309479     105.46523285     104.57227707     103.46021271     102.14578056     100.64659309      98.98583031      97.17999840      95.26365280      93.26374245      91.21373749      89.14289093      87.06914139      85.01435471      82.98807907      80.99452591      79.03681183      77.11358643      75.22013283      73.35137558      71.49807739      69.67992592      67.85494232      66.04219437      64.22515488      62.63888931      62.52678585      61.94399357      61.10137939      60.05259323      58.83075905      57.40166283      55.78913689      54.08206558      52.31761837      50.63338470      49.02726364      47.47535706      45.94344330      44.41116905      42.85403347      41.22574043      39.69616318      38.17199993      36.55026054      35.11006832      33.70072174      32.39349985      30.98870182      29.50199270      27.99663019      26.53583336      26.32283449      26.08920383      25.10880423      23.59714079      21.34420919      19.87457085      18.49294376      17.12077045      15.76018453      14.40284395      13.13824511      12.86005116      12.41345072      12.06873679      11.61143494      11.19534731      10.75852776      10.42938662      10.75050068