# File generated by Flopy version 3.9.1 on 03/13/2025 at 09:55:30.
BEGIN options
  TIME_UNITS  days
END options

BEGIN dimensions
  NPER  1
END dimensions

BEGIN perioddata
    1000.00000000  500       1.00000000
END perioddata

