# File generated by Flopy version 3.9.1 on 03/13/2025 at 09:55:31.
BEGIN options
  READASARRAYS
  PRINT_FLOWS
END options

BEGIN period  1
  recharge
    CONSTANT       0.00114155
END period  1

