# File generated by Flopy version 3.9.1 on 03/13/2025 at 09:55:31.
BEGIN options
  SCHEME  upstream
END options

