# File generated by Flopy version 3.9.1 on 03/13/2025 at 09:55:31.
BEGIN options
  PRINT_FLOWS
END options

BEGIN sources
  CHD-1  AUX  CONCENTRATION
END sources

