# File generated by Flopy version 3.8.2 on 01/20/2025 at 15:09:33.
BEGIN options
  DIGITS  10
END options

BEGIN continuous  FILEOUT  wel_obs.csv
  wel1  WEL  w1
  wel2  WEL  w2
END continuous  FILEOUT  wel_obs.csv

