# File generated by Flopy version 3.8.2 on 01/20/2025 at 15:09:33.
BEGIN options
  SAVE_FLOWS
  SAVE_SPECIFIC_DISCHARGE
END options

BEGIN griddata
  icelltype  LAYERED
    CONSTANT  1
    CONSTANT  0
    CONSTANT  0
  k  LAYERED
    CONSTANT       5.00000000
    CONSTANT       0.10000000
    CONSTANT      10.00000000
END griddata

