# File generated by Flopy version 3.8.2 on 01/20/2025 at 15:09:33.
BEGIN options
  BOUNDNAMES
  OBS6  FILEIN  symp06.riv.obs
END options

BEGIN dimensions
  MAXBOUND  100
END dimensions

BEGIN period  1
  1 8 1 45 1.00000000E+03 40 river_bc
  1 8 2 45 1.00000000E+03 40 river_bc
  1 8 3 45 1.00000000E+03 40 river_bc
  1 8 4 45 1.00000000E+03 40 river_bc
  1 8 5 45 1.00000000E+03 40 river_bc
  1 8 6 45 1.00000000E+03 40 river_bc
  1 8 7 45 1.00000000E+03 40 river_bc
  1 8 8 45 1.00000000E+03 40 river_bc
  1 8 9 45 1.00000000E+03 40 river_bc
  1 8 10 45 1.00000000E+03 40 river_bc
  1 8 11 45 1.00000000E+03 40 river_bc
  1 8 12 45 1.00000000E+03 40 river_bc
  1 8 13 45 1.00000000E+03 40 river_bc
  1 8 14 45 1.00000000E+03 40 river_bc
  1 8 15 45 1.00000000E+03 40 river_bc
  1 8 16 45 1.00000000E+03 40 river_bc
  1 8 17 45 1.00000000E+03 40 river_bc
  1 8 18 45 1.00000000E+03 40 river_bc
  1 8 19 45 1.00000000E+03 40 river_bc
  1 8 20 45 1.00000000E+03 40 river_bc
  1 8 21 45 1.00000000E+03 40 river_bc
  1 8 22 45 1.00000000E+03 40 river_bc
  1 8 23 45 1.00000000E+03 40 river_bc
  1 8 24 45 1.00000000E+03 40 river_bc
  1 8 25 45 1.00000000E+03 40 river_bc
  1 8 26 45 1.00000000E+03 40 river_bc
  1 8 27 45 1.00000000E+03 40 river_bc
  1 8 28 45 1.00000000E+03 40 river_bc
  1 8 29 45 1.00000000E+03 40 river_bc
  1 8 30 45 1.00000000E+03 40 river_bc
  1 8 31 45 1.00000000E+03 40 river_bc
  1 8 32 45 1.00000000E+03 40 river_bc
  1 8 33 45 1.00000000E+03 40 river_bc
  1 8 34 45 1.00000000E+03 40 river_bc
  1 8 35 45 1.00000000E+03 40 river_bc
  1 8 36 45 1.00000000E+03 40 river_bc
  1 8 37 45 1.00000000E+03 40 river_bc
  1 8 38 45 1.00000000E+03 40 river_bc
  1 8 39 45 1.00000000E+03 40 river_bc
  1 8 40 45 1.00000000E+03 40 river_bc
  1 8 41 45 1.00000000E+03 40 river_bc
  1 8 42 45 1.00000000E+03 40 river_bc
  1 8 43 45 1.00000000E+03 40 river_bc
  1 8 44 45 1.00000000E+03 40 river_bc
  1 8 45 45 1.00000000E+03 40 river_bc
  1 8 46 45 1.00000000E+03 40 river_bc
  1 8 47 45 1.00000000E+03 40 river_bc
  1 8 48 45 1.00000000E+03 40 river_bc
  1 8 49 45 1.00000000E+03 40 river_bc
  1 8 50 45 1.00000000E+03 40 river_bc
  1 8 51 45 1.00000000E+03 40 river_bc
  1 8 52 45 1.00000000E+03 40 river_bc
  1 8 53 45 1.00000000E+03 40 river_bc
  1 8 54 45 1.00000000E+03 40 river_bc
  1 8 55 45 1.00000000E+03 40 river_bc
  1 8 56 45 1.00000000E+03 40 river_bc
  1 8 57 45 1.00000000E+03 40 river_bc
  1 8 58 45 1.00000000E+03 40 river_bc
  1 8 59 45 1.00000000E+03 40 river_bc
  1 8 60 45 1.00000000E+03 40 river_bc
  1 8 61 45 1.00000000E+03 40 river_bc
  1 8 62 45 1.00000000E+03 40 river_bc
  1 8 63 45 1.00000000E+03 40 river_bc
  1 8 64 45 1.00000000E+03 40 river_bc
  1 8 65 45 1.00000000E+03 40 river_bc
  1 8 66 45 1.00000000E+03 40 river_bc
  1 8 67 45 1.00000000E+03 40 river_bc
  1 8 68 45 1.00000000E+03 40 river_bc
  1 8 69 45 1.00000000E+03 40 river_bc
  1 8 70 45 1.00000000E+03 40 river_bc
  1 8 71 45 1.00000000E+03 40 river_bc
  1 8 72 45 1.00000000E+03 40 river_bc
  1 8 73 45 1.00000000E+03 40 river_bc
  1 8 74 45 1.00000000E+03 40 river_bc
  1 8 75 45 1.00000000E+03 40 river_bc
  1 8 76 45 1.00000000E+03 40 river_bc
  1 8 77 45 1.00000000E+03 40 river_bc
  1 8 78 45 1.00000000E+03 40 river_bc
  1 8 79 45 1.00000000E+03 40 river_bc
  1 8 80 45 1.00000000E+03 40 river_bc
  1 8 81 45 1.00000000E+03 40 river_bc
  1 8 82 45 1.00000000E+03 40 river_bc
  1 8 83 45 1.00000000E+03 40 river_bc
  1 8 84 45 1.00000000E+03 40 river_bc
  1 8 85 45 1.00000000E+03 40 river_bc
  1 8 86 45 1.00000000E+03 40 river_bc
  1 8 87 45 1.00000000E+03 40 river_bc
  1 8 88 45 1.00000000E+03 40 river_bc
  1 8 89 45 1.00000000E+03 40 river_bc
  1 8 90 45 1.00000000E+03 40 river_bc
  1 8 91 45 1.00000000E+03 40 river_bc
  1 8 92 45 1.00000000E+03 40 river_bc
  1 8 93 45 1.00000000E+03 40 river_bc
  1 8 94 45 1.00000000E+03 40 river_bc
  1 8 95 45 1.00000000E+03 40 river_bc
  1 8 96 45 1.00000000E+03 40 river_bc
  1 8 97 45 1.00000000E+03 40 river_bc
  1 8 98 45 1.00000000E+03 40 river_bc
  1 8 99 45 1.00000000E+03 40 river_bc
  1 8 100 45 1.00000000E+03 40 river_bc
END period  1

