# File generated by Flopy version 3.8.2 on 01/20/2025 at 15:09:33.
BEGIN options
  PRINT_INPUT
  PRINT_FLOWS
  SAVE_FLOWS
END options

BEGIN dimensions
  MAXBOUND  2
END dimensions

BEGIN period  1
END period  1

BEGIN period  2
  3 6 4 -100
  3 11 7 -50
END period  2

