# Name file for MODFLOW-2005, generated by Flopy version 3.9.1.
#xll:0.0; yll:0.0; rotation:0.0; units:meters; lenuni:2; start_datetime:1-1-1970
LIST               2  p05_mf.list
DIS               11  p05_mf.dis
BAS6              13  p05_mf.bas
LPF               15  p05_mf.lpf
WEL               20  p05_mf.wel
SIP               25  p05_mf.sip
LMT6              30  p05_mf.lmt6
