# File generated by Flopy version 3.9.1 on 02/17/2025 at 08:26:32.
BEGIN options
END options

BEGIN griddata
  porosity
    CONSTANT       1.95700000
  volfrac
    CONSTANT       0.81093510
  zetaim
    CONSTANT       0.00200000
END griddata

