# DIS package for MODFLOW-2005 generated by Flopy 3.8.2
         1        40        20         1         4         2
  0
CONSTANT    5.000000E+00                           #delr                          
CONSTANT    2.500000E-01                           #delc                          
CONSTANT    0.000000E+00                           #model_top                     
CONSTANT   -1.000000E+01                           #botm layer 1                  
      1.000000             1  1.000000  SS
