# File generated by Flopy version 3.8.2 on 01/26/2025 at 08:19:32.
BEGIN options
  DIGITS  9
END options

BEGIN continuous  FILEOUT  drn_surf.csv
  surf-drn  drn  surf-drn
END continuous  FILEOUT  drn_surf.csv

