# File generated by Flopy version 3.8.2 on 01/26/2025 at 08:19:33.
BEGIN options
  BUDGET  FILEOUT  sgn.cbb
  HEAD  FILEOUT  sgn.hds
  HEAD  PRINT_FORMAT  COLUMNS  10  WIDTH  15  DIGITS  3  general
END options

BEGIN period  1
  SAVE  head  last
  SAVE  budget  last
  PRINT  head  last
  PRINT  budget  all
END period  1

