# File generated by Flopy version 3.9.1 on 05/19/2025 at 10:16:01.
BEGIN options
  READASARRAYS
END options

BEGIN period  1
  recharge
    CONSTANT       0.00500000
END period  1

