MODPATH_TIMESERIES_FILE         7         2
    1   0.0000000000E+00  0.0000000000E+00  0.0000000000E+00  0.0000000000E+00
END HEADER
       0       1  0.0000000000E+00         1    1      1001         3  0.5000000000E+00  0.5000000000E+00  0.5000000000E+00  0.1250000000E+04  0.1025000000E+05  0.2813054309E+03         1
       0       1  0.0000000000E+00         2    1      1002        23  0.5000000000E+00  0.5000000000E+00  0.5000000000E+00  0.1250000000E+04  0.9750000000E+04  0.2812975574E+03         1
       0       1  0.0000000000E+00         3    1      1003        43  0.5000000000E+00  0.5000000000E+00  0.5000000000E+00  0.1250000000E+04  0.9250000000E+04  0.2812823091E+03         1
       0       1  0.0000000000E+00         4    1      1004        63  0.5000000000E+00  0.5000000000E+00  0.5000000000E+00  0.1250000000E+04  0.8750000000E+04  0.2812606869E+03         1
       0       1  0.0000000000E+00         5    1      1005       343  0.5000000000E+00  0.5000000000E+00  0.5000000000E+00  0.1250000000E+04  0.1750000000E+04  0.2812606869E+03         1
       0       1  0.0000000000E+00         6    1      1006       363  0.5000000000E+00  0.5000000000E+00  0.5000000000E+00  0.1250000000E+04  0.1250000000E+04  0.2812823091E+03         1
       0       1  0.0000000000E+00         7    1      1007       383  0.5000000000E+00  0.5000000000E+00  0.5000000000E+00  0.1250000000E+04  0.7500000000E+03  0.2812975574E+03         1
       0       1  0.0000000000E+00         8    1      1008       403  0.5000000000E+00  0.5000000000E+00  0.5000000000E+00  0.1250000000E+04  0.2500000000E+03  0.2813054309E+03         1
       1       1  0.1000000000E-01         1    1      1001         3  0.5000049861E+00  0.4999998425E+00  0.4999991032E+00  0.1250002493E+04  0.1024999992E+05  0.2813053210E+03         1
       1       1  0.1000000000E-01         2    1      1002        23  0.5000050147E+00  0.4999995376E+00  0.4999990979E+00  0.1250002507E+04  0.9749999769E+04  0.2812974468E+03         1
       1       1  0.1000000000E-01         3    1      1003        43  0.5000050719E+00  0.4999992626E+00  0.4999990874E+00  0.1250002536E+04  0.9249999631E+04  0.2812821972E+03         1
       1       1  0.1000000000E-01         4    1      1004        63  0.5000051576E+00  0.4999990378E+00  0.4999990720E+00  0.1250002579E+04  0.8749999519E+04  0.2812605732E+03         1
       1       1  0.1000000000E-01         5    1      1005       343  0.5000051576E+00  0.5000009622E+00  0.4999990720E+00  0.1250002579E+04  0.1750000481E+04  0.2812605732E+03         1
       1       1  0.1000000000E-01         6    1      1006       363  0.5000050719E+00  0.5000007374E+00  0.4999990874E+00  0.1250002536E+04  0.1250000369E+04  0.2812821972E+03         1
       1       1  0.1000000000E-01         7    1      1007       383  0.5000050147E+00  0.5000004624E+00  0.4999990979E+00  0.1250002507E+04  0.7500002312E+03  0.2812974468E+03         1
       1       1  0.1000000000E-01         8    1      1008       403  0.5000049861E+00  0.5000001575E+00  0.4999991032E+00  0.1250002493E+04  0.2500000787E+03  0.2813053210E+03         1
       2       1  0.2000000000E-01         1    1      1001         3  0.5000099723E+00  0.4999996851E+00  0.4999982064E+00  0.1250004986E+04  0.1024999984E+05  0.2813052110E+03         1
       2       1  0.2000000000E-01         2    1      1002        23  0.5000100294E+00  0.4999990752E+00  0.4999981958E+00  0.1250005015E+04  0.9749999538E+04  0.2812973362E+03         1
       2       1  0.2000000000E-01         3    1      1003        43  0.5000101438E+00  0.4999985253E+00  0.4999981749E+00  0.1250005072E+04  0.9249999263E+04  0.2812820854E+03         1
       2       1  0.2000000000E-01         4    1      1004        63  0.5000103153E+00  0.4999980755E+00  0.4999981441E+00  0.1250005158E+04  0.8749999038E+04  0.2812604595E+03         1
       2       1  0.2000000000E-01         5    1      1005       343  0.5000103153E+00  0.5000019245E+00  0.4999981441E+00  0.1250005158E+04  0.1750000962E+04  0.2812604595E+03         1
       2       1  0.2000000000E-01         6    1      1006       363  0.5000101438E+00  0.5000014747E+00  0.4999981749E+00  0.1250005072E+04  0.1250000737E+04  0.2812820854E+03         1
       2       1  0.2000000000E-01         7    1      1007       383  0.5000100294E+00  0.5000009248E+00  0.4999981958E+00  0.1250005015E+04  0.7500004624E+03  0.2812973362E+03         1
       2       1  0.2000000000E-01         8    1      1008       403  0.5000099723E+00  0.5000003149E+00  0.4999982064E+00  0.1250004986E+04  0.2500001575E+03  0.2813052110E+03         1
       3       1  0.3000000000E-01         1    1      1001         3  0.5000149584E+00  0.4999995276E+00  0.4999973096E+00  0.1250007479E+04  0.1024999976E+05  0.2813051010E+03         1
       3       1  0.3000000000E-01         2    1      1002        23  0.5000150441E+00  0.4999986128E+00  0.4999972937E+00  0.1250007522E+04  0.9749999306E+04  0.2812972256E+03         1
       3       1  0.3000000000E-01         3    1      1003        43  0.5000152158E+00  0.4999977879E+00  0.4999972623E+00  0.1250007608E+04  0.9249998894E+04  0.2812819735E+03         1
       3       1  0.3000000000E-01         4    1      1004        63  0.5000154730E+00  0.4999971133E+00  0.4999972161E+00  0.1250007736E+04  0.8749998557E+04  0.2812603458E+03         1
       3       1  0.3000000000E-01         5    1      1005       343  0.5000154730E+00  0.5000028867E+00  0.4999972161E+00  0.1250007736E+04  0.1750001443E+04  0.2812603458E+03         1
       3       1  0.3000000000E-01         6    1      1006       363  0.5000152158E+00  0.5000022121E+00  0.4999972623E+00  0.1250007608E+04  0.1250001106E+04  0.2812819735E+03         1
       3       1  0.3000000000E-01         7    1      1007       383  0.5000150441E+00  0.5000013872E+00  0.4999972937E+00  0.1250007522E+04  0.7500006936E+03  0.2812972256E+03         1
       3       1  0.3000000000E-01         8    1      1008       403  0.5000149584E+00  0.5000004724E+00  0.4999973096E+00  0.1250007479E+04  0.2500002362E+03  0.2813051010E+03         1
       4       1  0.4000000000E-01         1    1      1001         3  0.5000199446E+00  0.4999993702E+00  0.4999964127E+00  0.1250009972E+04  0.1024999969E+05  0.2813049911E+03         1
       4       1  0.4000000000E-01         2    1      1002        23  0.5000200588E+00  0.4999981504E+00  0.4999963916E+00  0.1250010029E+04  0.9749999075E+04  0.2812971150E+03         1
       4       1  0.4000000000E-01         3    1      1003        43  0.5000202877E+00  0.4999970505E+00  0.4999963497E+00  0.1250010144E+04  0.9249998525E+04  0.2812818617E+03         1
       4       1  0.4000000000E-01         4    1      1004        63  0.5000206306E+00  0.4999961511E+00  0.4999962881E+00  0.1250010315E+04  0.8749998076E+04  0.2812602321E+03         1
       4       1  0.4000000000E-01         5    1      1005       343  0.5000206306E+00  0.5000038489E+00  0.4999962881E+00  0.1250010315E+04  0.1750001924E+04  0.2812602321E+03         1
       4       1  0.4000000000E-01         6    1      1006       363  0.5000202877E+00  0.5000029495E+00  0.4999963497E+00  0.1250010144E+04  0.1250001475E+04  0.2812818617E+03         1
       4       1  0.4000000000E-01         7    1      1007       383  0.5000200588E+00  0.5000018496E+00  0.4999963916E+00  0.1250010029E+04  0.7500009248E+03  0.2812971150E+03         1
       4       1  0.4000000000E-01         8    1      1008       403  0.5000199446E+00  0.5000006298E+00  0.4999964127E+00  0.1250009972E+04  0.2500003149E+03  0.2813049911E+03         1
       5       1  0.5000000000E-01         1    1      1001         3  0.5000249307E+00  0.4999992127E+00  0.4999955159E+00  0.1250012465E+04  0.1024999961E+05  0.2813048811E+03         1
       5       1  0.5000000000E-01         2    1      1002        23  0.5000250735E+00  0.4999976880E+00  0.4999954895E+00  0.1250012537E+04  0.9749998844E+04  0.2812970045E+03         1
       5       1  0.5000000000E-01         3    1      1003        43  0.5000253597E+00  0.4999963131E+00  0.4999954372E+00  0.1250012680E+04  0.9249998157E+04  0.2812817498E+03         1
       5       1  0.5000000000E-01         4    1      1004        63  0.5000257883E+00  0.4999951888E+00  0.4999953602E+00  0.1250012894E+04  0.8749997594E+04  0.2812601184E+03         1
       5       1  0.5000000000E-01         5    1      1005       343  0.5000257883E+00  0.5000048112E+00  0.4999953602E+00  0.1250012894E+04  0.1750002406E+04  0.2812601184E+03         1
       5       1  0.5000000000E-01         6    1      1006       363  0.5000253597E+00  0.5000036869E+00  0.4999954372E+00  0.1250012680E+04  0.1250001843E+04  0.2812817498E+03         1
       5       1  0.5000000000E-01         7    1      1007       383  0.5000250735E+00  0.5000023120E+00  0.4999954895E+00  0.1250012537E+04  0.7500011560E+03  0.2812970045E+03         1
       5       1  0.5000000000E-01         8    1      1008       403  0.5000249307E+00  0.5000007873E+00  0.4999955159E+00  0.1250012465E+04  0.2500003936E+03  0.2813048811E+03         1
       6       1  0.6000000000E-01         1    1      1001         3  0.5000299169E+00  0.4999990552E+00  0.4999946191E+00  0.1250014958E+04  0.1024999953E+05  0.2813047712E+03         1
       6       1  0.6000000000E-01         2    1      1002        23  0.5000300882E+00  0.4999972255E+00  0.4999945874E+00  0.1250015044E+04  0.9749998613E+04  0.2812968939E+03         1
       6       1  0.6000000000E-01         3    1      1003        43  0.5000304317E+00  0.4999955758E+00  0.4999945246E+00  0.1250015216E+04  0.9249997788E+04  0.2812816380E+03         1
       6       1  0.6000000000E-01         4    1      1004        63  0.5000309460E+00  0.4999942266E+00  0.4999944322E+00  0.1250015473E+04  0.8749997113E+04  0.2812600047E+03         1
       6       1  0.6000000000E-01         5    1      1005       343  0.5000309460E+00  0.5000057734E+00  0.4999944322E+00  0.1250015473E+04  0.1750002887E+04  0.2812600047E+03         1
       6       1  0.6000000000E-01         6    1      1006       363  0.5000304317E+00  0.5000044242E+00  0.4999945246E+00  0.1250015216E+04  0.1250002212E+04  0.2812816380E+03         1
       6       1  0.6000000000E-01         7    1      1007       383  0.5000300882E+00  0.5000027745E+00  0.4999945874E+00  0.1250015044E+04  0.7500013872E+03  0.2812968939E+03         1
       6       1  0.6000000000E-01         8    1      1008       403  0.5000299169E+00  0.5000009448E+00  0.4999946191E+00  0.1250014958E+04  0.2500004724E+03  0.2813047712E+03         1
       7       1  0.7000000000E-01         1    1      1001         3  0.5000349031E+00  0.4999988978E+00  0.4999937223E+00  0.1250017452E+04  0.1024999945E+05  0.2813046612E+03         1
       7       1  0.7000000000E-01         2    1      1002        23  0.5000351030E+00  0.4999967631E+00  0.4999936853E+00  0.1250017551E+04  0.9749998382E+04  0.2812967833E+03         1
       7       1  0.7000000000E-01         3    1      1003        43  0.5000355036E+00  0.4999948384E+00  0.4999936120E+00  0.1250017752E+04  0.9249997419E+04  0.2812815261E+03         1
       7       1  0.7000000000E-01         4    1      1004        63  0.5000361037E+00  0.4999932644E+00  0.4999935042E+00  0.1250018052E+04  0.8749996632E+04  0.2812598910E+03         1
       7       1  0.7000000000E-01         5    1      1005       343  0.5000361037E+00  0.5000067356E+00  0.4999935042E+00  0.1250018052E+04  0.1750003368E+04  0.2812598910E+03         1
       7       1  0.7000000000E-01         6    1      1006       363  0.5000355036E+00  0.5000051616E+00  0.4999936120E+00  0.1250017752E+04  0.1250002581E+04  0.2812815261E+03         1
       7       1  0.7000000000E-01         7    1      1007       383  0.5000351030E+00  0.5000032369E+00  0.4999936853E+00  0.1250017551E+04  0.7500016184E+03  0.2812967833E+03         1
       7       1  0.7000000000E-01         8    1      1008       403  0.5000349031E+00  0.5000011022E+00  0.4999937223E+00  0.1250017452E+04  0.2500005511E+03  0.2813046612E+03         1
       8       1  0.8000000000E-01         1    1      1001         3  0.5000398893E+00  0.4999987403E+00  0.4999928255E+00  0.1250019945E+04  0.1024999937E+05  0.2813045512E+03         1
       8       1  0.8000000000E-01         2    1      1002        23  0.5000401177E+00  0.4999963007E+00  0.4999927832E+00  0.1250020059E+04  0.9749998150E+04  0.2812966727E+03         1
       8       1  0.8000000000E-01         3    1      1003        43  0.5000405756E+00  0.4999941010E+00  0.4999926995E+00  0.1250020288E+04  0.9249997051E+04  0.2812814143E+03         1
       8       1  0.8000000000E-01         4    1      1004        63  0.5000412614E+00  0.4999923021E+00  0.4999925762E+00  0.1250020631E+04  0.8749996151E+04  0.2812597773E+03         1
       8       1  0.8000000000E-01         5    1      1005       343  0.5000412614E+00  0.5000076979E+00  0.4999925762E+00  0.1250020631E+04  0.1750003849E+04  0.2812597773E+03         1
       8       1  0.8000000000E-01         6    1      1006       363  0.5000405756E+00  0.5000058990E+00  0.4999926995E+00  0.1250020288E+04  0.1250002949E+04  0.2812814143E+03         1
       8       1  0.8000000000E-01         7    1      1007       383  0.5000401177E+00  0.5000036993E+00  0.4999927832E+00  0.1250020059E+04  0.7500018496E+03  0.2812966727E+03         1
       8       1  0.8000000000E-01         8    1      1008       403  0.5000398893E+00  0.5000012597E+00  0.4999928255E+00  0.1250019945E+04  0.2500006298E+03  0.2813045512E+03         1
       9       1  0.9000000000E-01         1    1      1001         3  0.5000448755E+00  0.4999985829E+00  0.4999919286E+00  0.1250022438E+04  0.1024999929E+05  0.2813044413E+03         1
       9       1  0.9000000000E-01         2    1      1002        23  0.5000451325E+00  0.4999958383E+00  0.4999918811E+00  0.1250022566E+04  0.9749997919E+04  0.2812965621E+03         1
       9       1  0.9000000000E-01         3    1      1003        43  0.5000456476E+00  0.4999933636E+00  0.4999917869E+00  0.1250022824E+04  0.9249996682E+04  0.2812813024E+03         1
       9       1  0.9000000000E-01         4    1      1004        63  0.5000464191E+00  0.4999913399E+00  0.4999916482E+00  0.1250023210E+04  0.8749995670E+04  0.2812596636E+03         1
       9       1  0.9000000000E-01         5    1      1005       343  0.5000464191E+00  0.5000086601E+00  0.4999916482E+00  0.1250023210E+04  0.1750004330E+04  0.2812596636E+03         1
       9       1  0.9000000000E-01         6    1      1006       363  0.5000456476E+00  0.5000066364E+00  0.4999917869E+00  0.1250022824E+04  0.1250003318E+04  0.2812813024E+03         1
       9       1  0.9000000000E-01         7    1      1007       383  0.5000451325E+00  0.5000041617E+00  0.4999918811E+00  0.1250022566E+04  0.7500020808E+03  0.2812965621E+03         1
       9       1  0.9000000000E-01         8    1      1008       403  0.5000448755E+00  0.5000014171E+00  0.4999919286E+00  0.1250022438E+04  0.2500007086E+03  0.2813044413E+03         1
      10       1  0.1000000000E+00         1    1      1001         3  0.5000498617E+00  0.4999984254E+00  0.4999910318E+00  0.1250024931E+04  0.1024999921E+05  0.2813043313E+03         1
      10       1  0.1000000000E+00         2    1      1002        23  0.5000501473E+00  0.4999953759E+00  0.4999909790E+00  0.1250025074E+04  0.9749997688E+04  0.2812964515E+03         1
      10       1  0.1000000000E+00         3    1      1003        43  0.5000507196E+00  0.4999926263E+00  0.4999908743E+00  0.1250025360E+04  0.9249996313E+04  0.2812811906E+03         1
      10       1  0.1000000000E+00         4    1      1004        63  0.5000515769E+00  0.4999903777E+00  0.4999907203E+00  0.1250025788E+04  0.8749995189E+04  0.2812595499E+03         1
      10       1  0.1000000000E+00         5    1      1005       343  0.5000515769E+00  0.5000096223E+00  0.4999907203E+00  0.1250025788E+04  0.1750004811E+04  0.2812595499E+03         1
      10       1  0.1000000000E+00         6    1      1006       363  0.5000507196E+00  0.5000073737E+00  0.4999908743E+00  0.1250025360E+04  0.1250003687E+04  0.2812811906E+03         1
      10       1  0.1000000000E+00         7    1      1007       383  0.5000501473E+00  0.5000046241E+00  0.4999909790E+00  0.1250025074E+04  0.7500023120E+03  0.2812964515E+03         1
      10       1  0.1000000000E+00         8    1      1008       403  0.5000498617E+00  0.5000015746E+00  0.4999910318E+00  0.1250024931E+04  0.2500007873E+03  0.2813043313E+03         1
      11       1  0.1100000000E+00         1    1      1001         3  0.5000548479E+00  0.4999982679E+00  0.4999901350E+00  0.1250027424E+04  0.1024999913E+05  0.2813042214E+03         1
      11       1  0.1100000000E+00         2    1      1002        23  0.5000551621E+00  0.4999949135E+00  0.4999900769E+00  0.1250027581E+04  0.9749997457E+04  0.2812963409E+03         1
      11       1  0.1100000000E+00         3    1      1003        43  0.5000557916E+00  0.4999918889E+00  0.4999899617E+00  0.1250027896E+04  0.9249995944E+04  0.2812810787E+03         1
      11       1  0.1100000000E+00         4    1      1004        63  0.5000567346E+00  0.4999894154E+00  0.4999897923E+00  0.1250028367E+04  0.8749994708E+04  0.2812594362E+03         1
      11       1  0.1100000000E+00         5    1      1005       343  0.5000567346E+00  0.5000105846E+00  0.4999897923E+00  0.1250028367E+04  0.1750005292E+04  0.2812594362E+03         1
      11       1  0.1100000000E+00         6    1      1006       363  0.5000557916E+00  0.5000081111E+00  0.4999899617E+00  0.1250027896E+04  0.1250004056E+04  0.2812810787E+03         1
      11       1  0.1100000000E+00         7    1      1007       383  0.5000551621E+00  0.5000050865E+00  0.4999900769E+00  0.1250027581E+04  0.7500025433E+03  0.2812963409E+03         1
      11       1  0.1100000000E+00         8    1      1008       403  0.5000548479E+00  0.5000017321E+00  0.4999901350E+00  0.1250027424E+04  0.2500008660E+03  0.2813042214E+03         1
      12       1  0.1200000000E+00         1    1      1001         3  0.5000598341E+00  0.4999981105E+00  0.4999892381E+00  0.1250029917E+04  0.1024999906E+05  0.2813041114E+03         1
      12       1  0.1200000000E+00         2    1      1002        23  0.5000601768E+00  0.4999944511E+00  0.4999891747E+00  0.1250030088E+04  0.9749997226E+04  0.2812962303E+03         1
      12       1  0.1200000000E+00         3    1      1003        43  0.5000608637E+00  0.4999911515E+00  0.4999890491E+00  0.1250030432E+04  0.9249995576E+04  0.2812809669E+03         1
      12       1  0.1200000000E+00         4    1      1004        63  0.5000618924E+00  0.4999884532E+00  0.4999888643E+00  0.1250030946E+04  0.8749994227E+04  0.2812593225E+03         1
      12       1  0.1200000000E+00         5    1      1005       343  0.5000618924E+00  0.5000115468E+00  0.4999888643E+00  0.1250030946E+04  0.1750005773E+04  0.2812593225E+03         1
      12       1  0.1200000000E+00         6    1      1006       363  0.5000608637E+00  0.5000088485E+00  0.4999890491E+00  0.1250030432E+04  0.1250004424E+04  0.2812809669E+03         1
      12       1  0.1200000000E+00         7    1      1007       383  0.5000601768E+00  0.5000055489E+00  0.4999891747E+00  0.1250030088E+04  0.7500027745E+03  0.2812962303E+03         1
      12       1  0.1200000000E+00         8    1      1008       403  0.5000598341E+00  0.5000018895E+00  0.4999892381E+00  0.1250029917E+04  0.2500009448E+03  0.2813041114E+03         1
      13       1  0.1300000000E+00         1    1      1001         3  0.5000648204E+00  0.4999979530E+00  0.4999883413E+00  0.1250032410E+04  0.1024999898E+05  0.2813040014E+03         1
      13       1  0.1300000000E+00         2    1      1002        23  0.5000651916E+00  0.4999939887E+00  0.4999882726E+00  0.1250032596E+04  0.9749996994E+04  0.2812961197E+03         1
      13       1  0.1300000000E+00         3    1      1003        43  0.5000659357E+00  0.4999904141E+00  0.4999881366E+00  0.1250032968E+04  0.9249995207E+04  0.2812808550E+03         1
      13       1  0.1300000000E+00         4    1      1004        63  0.5000670501E+00  0.4999874910E+00  0.4999879363E+00  0.1250033525E+04  0.8749993745E+04  0.2812592088E+03         1
      13       1  0.1300000000E+00         5    1      1005       343  0.5000670501E+00  0.5000125090E+00  0.4999879363E+00  0.1250033525E+04  0.1750006255E+04  0.2812592088E+03         1
      13       1  0.1300000000E+00         6    1      1006       363  0.5000659357E+00  0.5000095859E+00  0.4999881366E+00  0.1250032968E+04  0.1250004793E+04  0.2812808550E+03         1
      13       1  0.1300000000E+00         7    1      1007       383  0.5000651916E+00  0.5000060113E+00  0.4999882726E+00  0.1250032596E+04  0.7500030057E+03  0.2812961197E+03         1
      13       1  0.1300000000E+00         8    1      1008       403  0.5000648204E+00  0.5000020470E+00  0.4999883413E+00  0.1250032410E+04  0.2500010235E+03  0.2813040014E+03         1
      14       1  0.1400000000E+00         1    1      1001         3  0.5000698066E+00  0.4999977956E+00  0.4999874445E+00  0.1250034903E+04  0.1024999890E+05  0.2813038915E+03         1
      14       1  0.1400000000E+00         2    1      1002        23  0.5000702065E+00  0.4999935263E+00  0.4999873705E+00  0.1250035103E+04  0.9749996763E+04  0.2812960091E+03         1
      14       1  0.1400000000E+00         3    1      1003        43  0.5000710078E+00  0.4999896768E+00  0.4999872240E+00  0.1250035504E+04  0.9249994838E+04  0.2812807432E+03         1
      14       1  0.1400000000E+00         4    1      1004        63  0.5000722079E+00  0.4999865287E+00  0.4999870083E+00  0.1250036104E+04  0.8749993264E+04  0.2812590951E+03         1
      14       1  0.1400000000E+00         5    1      1005       343  0.5000722079E+00  0.5000134713E+00  0.4999870083E+00  0.1250036104E+04  0.1750006736E+04  0.2812590951E+03         1
      14       1  0.1400000000E+00         6    1      1006       363  0.5000710078E+00  0.5000103232E+00  0.4999872240E+00  0.1250035504E+04  0.1250005162E+04  0.2812807432E+03         1
      14       1  0.1400000000E+00         7    1      1007       383  0.5000702065E+00  0.5000064737E+00  0.4999873705E+00  0.1250035103E+04  0.7500032369E+03  0.2812960091E+03         1
      14       1  0.1400000000E+00         8    1      1008       403  0.5000698066E+00  0.5000022044E+00  0.4999874445E+00  0.1250034903E+04  0.2500011022E+03  0.2813038915E+03         1
      15       1  0.1500000000E+00         1    1      1001         3  0.5000747929E+00  0.4999976381E+00  0.4999865476E+00  0.1250037396E+04  0.1024999882E+05  0.2813037815E+03         1
      15       1  0.1500000000E+00         2    1      1002        23  0.5000752213E+00  0.4999930638E+00  0.4999864684E+00  0.1250037611E+04  0.9749996532E+04  0.2812958985E+03         1
      15       1  0.1500000000E+00         3    1      1003        43  0.5000760798E+00  0.4999889394E+00  0.4999863114E+00  0.1250038040E+04  0.9249994470E+04  0.2812806313E+03         1
      15       1  0.1500000000E+00         4    1      1004        63  0.5000773657E+00  0.4999855665E+00  0.4999860803E+00  0.1250038683E+04  0.8749992783E+04  0.2812589814E+03         1
      15       1  0.1500000000E+00         5    1      1005       343  0.5000773657E+00  0.5000144335E+00  0.4999860803E+00  0.1250038683E+04  0.1750007217E+04  0.2812589814E+03         1
      15       1  0.1500000000E+00         6    1      1006       363  0.5000760798E+00  0.5000110606E+00  0.4999863114E+00  0.1250038040E+04  0.1250005530E+04  0.2812806313E+03         1
      15       1  0.1500000000E+00         7    1      1007       383  0.5000752213E+00  0.5000069362E+00  0.4999864684E+00  0.1250037611E+04  0.7500034681E+03  0.2812958985E+03         1
      15       1  0.1500000000E+00         8    1      1008       403  0.5000747929E+00  0.5000023619E+00  0.4999865476E+00  0.1250037396E+04  0.2500011810E+03  0.2813037815E+03         1
      16       1  0.1600000000E+00         1    1      1001         3  0.5000797791E+00  0.4999974806E+00  0.4999856508E+00  0.1250039890E+04  0.1024999874E+05  0.2813036715E+03         1
      16       1  0.1600000000E+00         2    1      1002        23  0.5000802361E+00  0.4999926014E+00  0.4999855663E+00  0.1250040118E+04  0.9749996301E+04  0.2812957879E+03         1
      16       1  0.1600000000E+00         3    1      1003        43  0.5000811519E+00  0.4999882020E+00  0.4999853988E+00  0.1250040576E+04  0.9249994101E+04  0.2812805195E+03         1
      16       1  0.1600000000E+00         4    1      1004        63  0.5000825235E+00  0.4999846043E+00  0.4999851523E+00  0.1250041262E+04  0.8749992302E+04  0.2812588677E+03         1
      16       1  0.1600000000E+00         5    1      1005       343  0.5000825235E+00  0.5000153957E+00  0.4999851523E+00  0.1250041262E+04  0.1750007698E+04  0.2812588677E+03         1
      16       1  0.1600000000E+00         6    1      1006       363  0.5000811519E+00  0.5000117980E+00  0.4999853988E+00  0.1250040576E+04  0.1250005899E+04  0.2812805195E+03         1
      16       1  0.1600000000E+00         7    1      1007       383  0.5000802361E+00  0.5000073986E+00  0.4999855663E+00  0.1250040118E+04  0.7500036993E+03  0.2812957879E+03         1
      16       1  0.1600000000E+00         8    1      1008       403  0.5000797791E+00  0.5000025194E+00  0.4999856508E+00  0.1250039890E+04  0.2500012597E+03  0.2813036715E+03         1
      17       1  0.1700000000E+00         1    1      1001         3  0.5000847654E+00  0.4999973232E+00  0.4999847540E+00  0.1250042383E+04  0.1024999866E+05  0.2813035616E+03         1
      17       1  0.1700000000E+00         2    1      1002        23  0.5000852509E+00  0.4999921390E+00  0.4999846642E+00  0.1250042625E+04  0.9749996070E+04  0.2812956773E+03         1
      17       1  0.1700000000E+00         3    1      1003        43  0.5000862240E+00  0.4999874646E+00  0.4999844862E+00  0.1250043112E+04  0.9249993732E+04  0.2812804076E+03         1
      17       1  0.1700000000E+00         4    1      1004        63  0.5000876813E+00  0.4999836420E+00  0.4999842243E+00  0.1250043841E+04  0.8749991821E+04  0.2812587540E+03         1
      17       1  0.1700000000E+00         5    1      1005       343  0.5000876813E+00  0.5000163580E+00  0.4999842243E+00  0.1250043841E+04  0.1750008179E+04  0.2812587540E+03         1
      17       1  0.1700000000E+00         6    1      1006       363  0.5000862240E+00  0.5000125354E+00  0.4999844862E+00  0.1250043112E+04  0.1250006268E+04  0.2812804076E+03         1
      17       1  0.1700000000E+00         7    1      1007       383  0.5000852509E+00  0.5000078610E+00  0.4999846642E+00  0.1250042625E+04  0.7500039305E+03  0.2812956773E+03         1
      17       1  0.1700000000E+00         8    1      1008       403  0.5000847654E+00  0.5000026768E+00  0.4999847540E+00  0.1250042383E+04  0.2500013384E+03  0.2813035616E+03         1
      18       1  0.1800000000E+00         1    1      1001         3  0.5000897517E+00  0.4999971657E+00  0.4999838571E+00  0.1250044876E+04  0.1024999858E+05  0.2813034516E+03         1
      18       1  0.1800000000E+00         2    1      1002        23  0.5000902658E+00  0.4999916766E+00  0.4999837620E+00  0.1250045133E+04  0.9749995838E+04  0.2812955667E+03         1
      18       1  0.1800000000E+00         3    1      1003        43  0.5000912961E+00  0.4999867273E+00  0.4999835736E+00  0.1250045648E+04  0.9249993364E+04  0.2812802958E+03         1
      18       1  0.1800000000E+00         4    1      1004        63  0.5000928391E+00  0.4999826798E+00  0.4999832964E+00  0.1250046420E+04  0.8749991340E+04  0.2812586403E+03         1
      18       1  0.1800000000E+00         5    1      1005       343  0.5000928391E+00  0.5000173202E+00  0.4999832964E+00  0.1250046420E+04  0.1750008660E+04  0.2812586403E+03         1
      18       1  0.1800000000E+00         6    1      1006       363  0.5000912961E+00  0.5000132727E+00  0.4999835736E+00  0.1250045648E+04  0.1250006636E+04  0.2812802958E+03         1
      18       1  0.1800000000E+00         7    1      1007       383  0.5000902658E+00  0.5000083234E+00  0.4999837620E+00  0.1250045133E+04  0.7500041617E+03  0.2812955667E+03         1
      18       1  0.1800000000E+00         8    1      1008       403  0.5000897517E+00  0.5000028343E+00  0.4999838571E+00  0.1250044876E+04  0.2500014171E+03  0.2813034516E+03         1
      19       1  0.1900000000E+00         1    1      1001         3  0.5000947380E+00  0.4999970083E+00  0.4999829603E+00  0.1250047369E+04  0.1024999850E+05  0.2813033417E+03         1
      19       1  0.1900000000E+00         2    1      1002        23  0.5000952807E+00  0.4999912142E+00  0.4999828599E+00  0.1250047640E+04  0.9749995607E+04  0.2812954561E+03         1
      19       1  0.1900000000E+00         3    1      1003        43  0.5000963681E+00  0.4999859899E+00  0.4999826610E+00  0.1250048184E+04  0.9249992995E+04  0.2812801839E+03         1
      19       1  0.1900000000E+00         4    1      1004        63  0.5000979970E+00  0.4999817176E+00  0.4999823684E+00  0.1250048998E+04  0.8749990859E+04  0.2812585266E+03         1
      19       1  0.1900000000E+00         5    1      1005       343  0.5000979970E+00  0.5000182824E+00  0.4999823684E+00  0.1250048998E+04  0.1750009141E+04  0.2812585266E+03         1
      19       1  0.1900000000E+00         6    1      1006       363  0.5000963681E+00  0.5000140101E+00  0.4999826610E+00  0.1250048184E+04  0.1250007005E+04  0.2812801839E+03         1