# File generated by Flopy version 3.9.1 on 05/19/2025 at 10:16:01.
BEGIN options
END options

BEGIN dimensions
  MAXBOUND  1
END dimensions

BEGIN period  1
  3 11 10 -1.50000000E+05
END period  1

