# File generated by Flopy version 3.9.1 on 05/19/2025 at 10:16:01.
BEGIN options
END options

BEGIN griddata
  strt
    CONSTANT     400.00000000
END griddata

