# File generated by Flopy version 3.9.1 on 04/17/2025 at 14:20:53.
BEGIN Options
END Options

BEGIN GRIDDATA
  strt  LAYERED
    CONSTANT     -25.00000000
    CONSTANT     -25.00000000
    CONSTANT     -25.00000000
END GRIDDATA

