# File generated by Flopy version 3.9.1 on 04/17/2025 at 14:20:53.
BEGIN Options
  PRINT_INPUT
  NEWTON
END Options

BEGIN PACKAGES
  dis6  test001e_UZF_3lay.dis
  ic6  test001e_UZF_3lay.ic
  npf6  test001e_UZF_3lay.npf
  sto6  test001e_UZF_3lay.sto
  chd6  test001e_UZF_3lay.chd
  oc6  test001e_UZF_3lay.oc
  uzf6  test001e_UZF_3lay.uzf
  obs6  test001e_UZF_3lay_obs.hed
END PACKAGES

