# File generated by Flopy version 3.9.1 on 04/17/2025 at 14:20:53.
BEGIN OPTIONS
END OPTIONS

BEGIN CONTINUOUS  FILEOUT  test001e_UZF_3lay_obshead.out
  h1  head  1 1 2
  h2  head  2 1 2
  h3  head  3 1 2
END CONTINUOUS  FILEOUT  test001e_UZF_3lay_obshead.out

