# File generated by Flopy version 3.9.1 on 02/17/2025 at 14:55:43.
BEGIN options
  SCHEME  upstream
END options

