# Pleasant Lake test case version 0.1.post55.dev0+g106385f
# File generated by Flopy version 3.10.0.dev1 on 01/31/2025 at 10:09:05.
# via modflow-setup version 0.6.0 at 2025-01-31 10:09:05
BEGIN options
  BUDGET  FILEOUT  plsnt_lgr_parent.cbc
  HEAD  FILEOUT  plsnt_lgr_parent.hds
END options

BEGIN period  1
  SAVE  head  last
  SAVE  budget  last
END period  1

