# plsnt_lgr_inset model version 0.post55.dev0+g106385f
# File generated by Flopy version 3.10.0.dev1 on 01/31/2025 at 10:09:05.
# via modflow-setup version 0.6.0 at 2025-01-31 10:09:06
BEGIN options
  BUDGET  FILEOUT  plsnt_lgr_inset.cbc
  HEAD  FILEOUT  plsnt_lgr_inset.hds
END options

BEGIN period  1
  SAVE  head  last
  SAVE  budget  last
END period  1

