# File generated by Flopy version 3.9.1 on 02/27/2025 at 15:54:26.
BEGIN options
  auxiliary  CONCENTRATION
  PRINT_INPUT
  PRINT_FLOWS
END options

BEGIN dimensions
  MAXBOUND  1
END dimensions

BEGIN period  1
  1 80 21 1.00000000E-02 1.00000000E+03
END period  1

