# Name file for MT3DMS, generated by Flopy version 3.9.1.
LIST              16  p04_mt.list
FTL               10  mt3d_link.ftl 
BTN               31  p04_mt.btn
ADV               32  p04_mt.adv
DSP               33  p04_mt.dsp
SSM               34  p04_mt.ssm
GCG               35  p04_mt.gcg
