# File generated by Flopy version 3.9.1 on 06/21/2025 at 10:36:07.
BEGIN options
END options

BEGIN griddata
  strt
    CONSTANT      25.00000000
END griddata

