# File generated by Flopy version 3.9.1 on 04/09/2025 at 10:47:42.
BEGIN options
END options

BEGIN packages
  DIS6  08_p02.dis  dis
  NPF6  08_p02.npf  npf
  STO6  08_p02.sto  sto
  IC6  08_p02.ic  ic
  CHD6  08_p02.chd  chd_0
  RCH6  08_p02.rch  rch_0
  OC6  08_p02.oc  oc
END packages

