# File generated by Flopy version 3.9.1 on 06/21/2025 at 10:36:07.
BEGIN options
END options

BEGIN timing
  TDIS6  08_p02.tdis
END timing

BEGIN models
  gwf6  08_p02.nam  08_p02
END models

BEGIN exchanges
END exchanges

BEGIN solutiongroup  1
  ims6  08_p02.ims  08_p02
END solutiongroup  1

