# File generated by Flopy version 3.10.0.dev3 on 06/15/2025 at 08:21:42.
BEGIN options
  BUDGET  FILEOUT  model_0.cbc
  HEAD  FILEOUT  model_0.hds
END options

BEGIN period  1
  SAVE  HEAD  ALL
  SAVE  BUDGET  ALL
  PRINT  BUDGET  ALL
END period  1

