# File generated by Flopy version 3.10.0.dev3 on 06/15/2025 at 08:21:43.
BEGIN options
END options

BEGIN griddata
  strt  LAYERED
    INTERNAL  FACTOR  1.0
           0.00000000       0.00000000       0.00000000       0.00000000       0.00000000       0.00000000       0.00000000       0.00000000      78.12384796      74.56716919      70.88367462
           0.00000000       0.00000000       0.00000000       0.00000000       0.00000000       0.00000000       0.00000000      84.00646973      80.23651886      76.48960114      72.60894012
           0.00000000       0.00000000       0.00000000       0.00000000       0.00000000       0.00000000       0.00000000      84.23432159      80.21315002      76.34709930      72.61635590
         106.00353241     104.64302063     102.38244629      99.27772522      95.42691803      91.10030365      86.60391235      82.13350677      77.94239044      74.02459717      70.55555725
         105.27056122     103.76230621     101.33724213      97.93894958      93.42872620      88.33638763      83.40344238      78.88888550      76.11111450      73.33333588      71.18558502
         105.08039856     102.44425964      99.99815369      96.43991089      90.91739655      84.44444275      81.66666412      79.63040924      78.16852570      76.33744812      74.09729004
         103.59868622     101.67651367      98.65974426      95.12747192      90.66130066      85.33496857      83.91230011      82.54405212      80.83419800      78.66692352      75.97972870
         103.59868622     100.96144104      98.65974426      94.86888123      91.04132080      88.24512482      86.25640869      84.49988556      82.51707458      80.07183838      76.96694183
         100.96144104      98.65974426      97.10437775      92.69839478      91.39332581      88.69767761      87.02427673      85.33779144      83.17240143      80.65895081      77.39077759
         100.96144104      98.65974426      95.37735748      92.69839478      90.28887939      88.20022583      87.21867371      86.03322601      82.92853546      80.49723053      76.92732239
          98.65974426      97.10437775      92.69839478      91.39332581      90.28887939      88.20022583      86.23340607      84.74906158      82.92853546      79.56042480      76.92732239
          98.65974426      92.69839478      92.69839478      90.28887939      88.20022583      87.21867371      86.23340607      84.74906158      81.32525635      79.56042480      76.92732239
    INTERNAL  FACTOR  1.0
           0.00000000       0.00000000       0.00000000       0.00000000       0.00000000       0.00000000       0.00000000       0.00000000      78.12384796      74.56716919      70.88367462
           0.00000000       0.00000000       0.00000000       0.00000000       0.00000000       0.00000000       0.00000000      84.00646973      80.23651886      76.48960114      72.60894012
           0.00000000       0.00000000       0.00000000       0.00000000       0.00000000       0.00000000       0.00000000      84.23432159      80.21315002      76.34709930      72.61635590
         106.00353241     104.64302063     102.38244629      99.27772522      95.42691803      91.10030365      86.60391235      82.13350677      77.94239044      74.02459717      70.55555725
         105.27056122     103.76230621     101.33724213      97.93894958      93.42872620      88.33638763      83.40344238      78.88888550      76.11111450      73.33333588      71.18558502
         105.08039856     102.44425964      99.99815369      96.43991089      90.91739655      84.44444275      81.66666412      79.63040924      78.16852570      76.33744812      74.09729004
         103.59868622     101.67651367      98.65974426      95.12747192      90.66130066      85.33496857      83.91230011      82.54405212      80.83419800      78.66692352      75.97972870
         103.59868622     100.96144104      98.65974426      94.86888123      91.04132080      88.24512482      86.25640869      84.49988556      82.51707458      80.07183838      76.96694183
         100.96144104      98.65974426      97.10437775      92.69839478      91.39332581      88.69767761      87.02427673      85.33779144      83.17240143      80.65895081      77.39077759
         100.96144104      98.65974426      95.37735748      92.69839478      90.28887939      88.20022583      87.21867371      86.03322601      82.92853546      80.49723053      76.92732239
          98.65974426      97.10437775      92.69839478      91.39332581      90.28887939      88.20022583      86.23340607      84.74906158      82.92853546      79.56042480      76.92732239
          98.65974426      92.69839478      92.69839478      90.28887939      88.20022583      87.21867371      86.23340607      84.74906158      81.32525635      79.56042480      76.92732239
END griddata

