# File generated by Flopy version 3.10.0.dev3 on 06/15/2025 at 08:21:42.
BEGIN options
  READASARRAYS
END options

BEGIN period  1
  recharge
    CONSTANT  1.00000000E-06
END period  1

