# File generated by Flopy version 3.10.0.dev3 on 06/15/2025 at 08:21:43.
BEGIN options
END options

BEGIN griddata
  strt  LAYERED
    INTERNAL  FACTOR  1.0
          99.61818695      97.70894623      97.26135254      95.48061371      94.44600677      90.18769073      87.03125000      83.31587219      80.09763336      70.97997284
          99.48647308      98.18162537      96.52616882      94.43696594      91.56060028      88.15284729      87.03125000      83.31587219      75.64496613      70.97997284
          98.99633026      97.56451416      95.74765015      93.44152069      90.51528168      86.88935852      82.50525665      77.49407196      72.61897278      69.11573029
          97.55210876      96.03510284      94.14903259      91.77485657      88.75533295      84.91094971      80.06882477      74.29592896      69.07550049      66.76077271
          95.10495758      93.55847168      91.70294952      89.39275360      86.41493988      82.47927856      77.14799500      69.46596527      58.77575684      59.32310867
           0.00000000      90.03145599      88.33377075      86.27623749      83.58163452      79.88236237      74.67008209      67.04887390      53.88888931      52.77777863
           0.00000000      85.26643372      83.88273621      82.35221100      80.27700806      77.22476959      72.81597900      66.75411224      56.86277008      51.11111069
           0.00000000      78.93200684      78.01248169      77.48957062      76.47556305      74.41047668      71.06285095      66.39675903      59.59486008      51.88072205
           0.00000000      73.33333588      70.55555725      70.00000000      71.86842346      71.38854218       0.00000000       0.00000000       0.00000000       0.00000000
    INTERNAL  FACTOR  1.0
          99.61818695      97.70894623      97.26135254      95.48061371      94.44600677      90.18769073      87.03125000      83.31587219      80.09763336      70.97997284
          99.48647308      98.18162537      96.52616882      94.43696594      91.56060028      88.15284729      87.03125000      83.31587219      75.64496613      70.97997284
          98.99633026      97.56451416      95.74765015      93.44152069      90.51528168      86.88935852      82.50525665      77.49407196      72.61897278      69.11573029
          97.55210876      96.03510284      94.14903259      91.77485657      88.75533295      84.91094971      80.06882477      74.29592896      69.07550049      66.76077271
          95.10495758      93.55847168      91.70294952      89.39275360      86.41493988      82.47927856      77.14799500      69.46596527      58.77575684      59.32310867
           0.00000000      90.03145599      88.33377075      86.27623749      83.58163452      79.88236237      74.67008209      67.04887390      53.88888931      52.77777863
           0.00000000      85.26643372      83.88273621      82.35221100      80.27700806      77.22476959      72.81597900      66.75411224      56.86277008      51.11111069
           0.00000000      78.93200684      78.01248169      77.48957062      76.47556305      74.41047668      71.06285095      66.39675903      59.59486008      51.88072205
           0.00000000      73.33333588      70.55555725      70.00000000      71.86842346      71.38854218       0.00000000       0.00000000       0.00000000       0.00000000
END griddata

