# File generated by Flopy version 3.10.0.dev3 on 06/15/2025 at 08:21:43.
BEGIN options
  XORIGIN   40000.00000000
  YORIGIN   60000.00000000
END options

BEGIN dimensions
  NLAY  2
  NROW  9
  NCOL  10
END dimensions

BEGIN griddata
  delr
    INTERNAL  FACTOR  1.0
      5000.00000000    5000.00000000    5000.00000000    5000.00000000    5000.00000000    5000.00000000    5000.00000000    5000.00000000    5000.00000000    5000.00000000
  delc
    INTERNAL  FACTOR  1.0
      5000.00000000    5000.00000000    5000.00000000    5000.00000000    5000.00000000    5000.00000000    5000.00000000    5000.00000000    5000.00000000
  top
    INTERNAL  FACTOR  1.0
        99.61818695      97.70894623      97.26135254      95.48061371      94.44600677      90.18769073      87.03125000      83.31587219      80.09763336      70.97997284
        99.48647308      98.18162537      96.52616882      94.43696594      91.56060028      88.15284729      87.03125000      83.31587219      75.64496613      70.97997284
        98.99633026      97.56451416      95.74765015      93.44152069      90.51528168      86.88935852      82.50525665      77.49407196      72.61897278      69.11573029
        97.55210876      96.03510284      94.14903259      91.77485657      88.75533295      84.91094971      80.06882477      74.29592896      69.07550049      66.76077271
        95.10495758      93.55847168      91.70294952      89.39275360      86.41493988      82.47927856      77.14799500      69.46596527      58.77575684      59.32310867
         0.00000000      90.03145599      88.33377075      86.27623749      83.58163452      79.88236237      74.67008209      67.04887390      53.88888931      52.77777863
         0.00000000      85.26643372      83.88273621      82.35221100      80.27700806      77.22476959      72.81597900      66.75411224      56.86277008      51.11111069
         0.00000000      78.93200684      78.01248169      77.48957062      76.47556305      74.41047668      71.06285095      66.39675903      59.59486008      51.88072205
         0.00000000      73.33333588      70.55555725      70.00000000      71.86842346      71.38854218       0.00000000       0.00000000       0.00000000       0.00000000
  botm  LAYERED
    INTERNAL  FACTOR  1.0
          94.61818695      92.70894623      92.26135254      90.48061371      89.44600677      85.18769073      82.03125000      78.31587219      75.09763336      65.97997284
          94.48647308      93.18162537      91.52616882      89.43696594      86.56060028      83.15284729      82.03125000      78.31587219      70.64496613      65.97997284
          93.99633026      92.56451416      90.74765015      88.44152069      85.51528168      81.88935852      77.50525665      72.49407196      67.61897278      64.11573029
          92.55210876      91.03510284      89.14903259      86.77485657      83.75533295      79.91094971      75.06882477      69.29592896      64.07550049      61.76077271
          90.10495758      88.55847168      86.70294952      84.39275360      81.41493988      77.47927856      72.14799500      64.46596527      53.77575684      54.32310867
           0.00000000      85.03145599      83.33377075      81.27623749      78.58163452      74.88236237      69.67008209      62.04887390      48.88888931      47.77777863
           0.00000000      80.26643372      78.88273621      77.35221100      75.27700806      72.22476959      67.81597900      61.75411224      51.86277008      46.11111069
           0.00000000      73.93200684      73.01248169      72.48957062      71.47556305      69.41047668      66.06285095      61.39675903      54.59486008      46.88072205
           0.00000000      68.33333588      65.55555725      65.00000000      66.86842346      66.38854218       0.00000000       0.00000000       0.00000000       0.00000000
    INTERNAL  FACTOR  1.0
          87.11818695      85.20894623      84.76135254      82.98061371      81.94600677      77.68769073      74.53125000      70.81587219      67.59763336      58.47997284
          86.98647308      85.68162537      84.02616882      81.93696594      79.06060028      75.65284729      74.53125000      70.81587219      63.14496613      58.47997284
          86.49633026      85.06451416      83.24765015      80.94152069      78.01528168      74.38935852      70.00525665      64.99407196      60.11897278      56.61573029
          85.05210876      83.53510284      81.64903259      79.27485657      76.25533295      72.41094971      67.56882477      61.79592896      56.57550049      54.26077271
          82.60495758      81.05847168      79.20294952      76.89275360      73.91493988      69.97927856      64.64799500      56.96596527      46.27575684      46.82310867
           0.00000000      77.53145599      75.83377075      73.77623749      71.08163452      67.38236237      62.17008209      54.54887390      41.38888931      40.27777863
           0.00000000      72.76643372      71.38273621      69.85221100      67.77700806      64.72476959      60.31597900      54.25411224      44.36277008      38.61111069
           0.00000000      66.43200684      65.51248169      64.98957062      63.97556305      61.91047668      58.56285095      53.89675903      47.09486008      39.38072205
           0.00000000      60.83333588      58.05555725      57.50000000      59.36842346      58.88854218       0.00000000       0.00000000       0.00000000       0.00000000
  idomain
    INTERNAL  FACTOR  1
      0  0  0  0  0  0  0  0  0  0
      1  1  1  1  1  1  1  0  0  0
      1  1  1  1  1  1  1  1  1  1
      1  1  1  1  1  1  1  1  1  1
      1  1  1  1  1  1  1  1  1  1
      0  1  1  1  1  1  1  1  1  1
      0  1  1  1  1  1  1  1  1  1
      0  1  1  1  1  1  1  1  1  1
      0  1  1  1  1  1  0  0  0  0
      0  0  0  0  0  0  0  0  0  0
      1  1  1  1  1  1  1  0  0  0
      1  1  1  1  1  1  1  1  1  1
      1  1  1  1  1  1  1  1  1  1
      1  1  1  1  1  1  1  1  1  1
      0  1  1  1  1  1  1  1  1  1
      0  1  1  1  1  1  1  1  1  1
      0  1  1  1  1  1  1  1  1  1
      0  1  1  1  1  1  0  0  0  0
END griddata

