# File generated by Flopy version 3.10.0.dev3 on 06/15/2025 at 08:21:42.
BEGIN options
  auxiliary  ANGLDEGX  CDIST
  NEWTON
END options

BEGIN dimensions
  NEXG  4
END dimensions

BEGIN exchangedata
  1 1 10  1 9 2  1    2500.00000000    2500.00000000    5000.00000000      90.00000000    5000.00000000
  2 1 10  2 9 2  1    2500.00000000    2500.00000000    5000.00000000      90.00000000    5000.00000000
  1 1 11  1 9 3  1    2500.00000000    2500.00000000    5000.00000000      90.00000000    5000.00000000
  2 1 11  2 9 3  1    2500.00000000    2500.00000000    5000.00000000      90.00000000    5000.00000000
END exchangedata

