# File generated by Flopy version 3.10.0.dev3 on 06/15/2025 at 08:21:42.
BEGIN options
  auxiliary  ANGLDEGX  CDIST
  NEWTON
END options

BEGIN dimensions
  NEXG  20
END dimensions

BEGIN exchangedata
  1 1 11  1 2 1  1    2500.00000000    2500.00000000    5000.00000000       0.00000000    5000.00000000
  2 1 11  2 2 1  1    2500.00000000    2500.00000000    5000.00000000       0.00000000    5000.00000000
  1 2 11  1 3 1  1    2500.00000000    2500.00000000    5000.00000000       0.00000000    5000.00000000
  2 2 11  2 3 1  1    2500.00000000    2500.00000000    5000.00000000       0.00000000    5000.00000000
  1 3 11  1 4 1  1    2500.00000000    2500.00000000    5000.00000000       0.00000000    5000.00000000
  2 3 11  2 4 1  1    2500.00000000    2500.00000000    5000.00000000       0.00000000    5000.00000000
  1 4 11  1 5 1  1    2500.00000000    2500.00000000    5000.00000000       0.00000000    5000.00000000
  2 4 11  2 5 1  1    2500.00000000    2500.00000000    5000.00000000       0.00000000    5000.00000000
  1 5 11  1 6 1  1    2500.00000000    2500.00000000    5000.00000000       0.00000000    5000.00000000
  2 5 11  2 6 1  1    2500.00000000    2500.00000000    5000.00000000       0.00000000    5000.00000000
  1 6 11  1 7 1  1    2500.00000000    2500.00000000    5000.00000000       0.00000000    5000.00000000
  2 6 11  2 7 1  1    2500.00000000    2500.00000000    5000.00000000       0.00000000    5000.00000000
  1 7 11  1 8 1  1    2500.00000000    2500.00000000    5000.00000000       0.00000000    5000.00000000
  2 7 11  2 8 1  1    2500.00000000    2500.00000000    5000.00000000       0.00000000    5000.00000000
  1 8 11  1 9 1  1    2500.00000000    2500.00000000    5000.00000000       0.00000000    5000.00000000
  2 8 11  2 9 1  1    2500.00000000    2500.00000000    5000.00000000       0.00000000    5000.00000000
  1 9 11  1 10 1  1    2500.00000000    2500.00000000    5000.00000000       0.00000000    5000.00000000
  2 9 11  2 10 1  1    2500.00000000    2500.00000000    5000.00000000       0.00000000    5000.00000000
  1 10 11  1 11 1  1    2500.00000000    2500.00000000    5000.00000000       0.00000000    5000.00000000
  2 10 11  2 11 1  1    2500.00000000    2500.00000000    5000.00000000       0.00000000    5000.00000000
END exchangedata

