# File generated by Flopy version 3.10.0.dev3 on 06/15/2025 at 08:21:42.
BEGIN options
  auxiliary  ANGLDEGX  CDIST
  NEWTON
END options

BEGIN dimensions
  NEXG  14
END dimensions

BEGIN exchangedata
  1 10 11  1 2 1  1    2500.00000000    2500.00000000    5000.00000000     270.00000000    5000.00000000
  2 10 11  2 2 1  1    2500.00000000    2500.00000000    5000.00000000     270.00000000    5000.00000000
  1 10 12  1 2 2  1    2500.00000000    2500.00000000    5000.00000000     270.00000000    5000.00000000
  2 10 12  2 2 2  1    2500.00000000    2500.00000000    5000.00000000     270.00000000    5000.00000000
  1 10 13  1 2 3  1    2500.00000000    2500.00000000    5000.00000000     270.00000000    5000.00000000
  2 10 13  2 2 3  1    2500.00000000    2500.00000000    5000.00000000     270.00000000    5000.00000000
  1 10 14  1 2 4  1    2500.00000000    2500.00000000    5000.00000000     270.00000000    5000.00000000
  2 10 14  2 2 4  1    2500.00000000    2500.00000000    5000.00000000     270.00000000    5000.00000000
  1 10 15  1 2 5  1    2500.00000000    2500.00000000    5000.00000000     270.00000000    5000.00000000
  2 10 15  2 2 5  1    2500.00000000    2500.00000000    5000.00000000     270.00000000    5000.00000000
  1 10 16  1 1 7  1    2500.00000000    2500.00000000    5000.00000000       0.00000000    5000.00000000
  2 10 16  2 1 7  1    2500.00000000    2500.00000000    5000.00000000       0.00000000    5000.00000000
  1 10 16  1 2 6  1    2500.00000000    2500.00000000    5000.00000000     270.00000000    5000.00000000
  2 10 16  2 2 6  1    2500.00000000    2500.00000000    5000.00000000     270.00000000    5000.00000000
END exchangedata

