# File generated by Flopy version 3.8.2 on 01/26/2025 at 08:57:09.
BEGIN options
END options

BEGIN griddata
  diffc
    CONSTANT  1.02000000E-09
  alh
    CONSTANT      30.00000000
  ath1
    CONSTANT       3.00000000
  atv
    CONSTANT       3.00000000
END griddata

