# sgn_50 model version 0.post16.dev0+ge733124
# File generated by Flopy version 3.10.0.dev1 on 02/01/2025 at 06:12:19.
# via modflow-setup version 0.6.0 at 2025-02-01 06:12:19
BEGIN options
  CONTINUE
END options

BEGIN timing
  TDIS6  sgn_50_sim.tdis
END timing

BEGIN models
  gwf6  sgn_50.nam  sgn_50
END models

BEGIN exchanges
END exchanges

BEGIN solutiongroup  1
  ims6  sgn_50_sim.ims  sgn_50
END solutiongroup  1

