# sgn_50 model version 0.post16.dev0+ge733124
# File generated by Flopy version 3.10.0.dev1 on 02/01/2025 at 06:12:19.
# via modflow-setup version 0.6.0 at 2025-02-01 06:12:19
BEGIN options
  BOUNDNAMES
  PRINT_INPUT
  PRINT_FLOWS
  SAVE_FLOWS
  OBS6  FILEIN  sgn_50.wel.obs
END options

BEGIN dimensions
  MAXBOUND  143
END dimensions

BEGIN period  1
    OPEN/CLOSE  '.\.\wel_000.dat'
END period  1

BEGIN period  2
    OPEN/CLOSE  '.\.\wel_001.dat'
END period  2

