# sgn_50 model version 0.post16.dev0+ge733124
# File generated by Flopy version 3.10.0.dev1 on 02/01/2025 at 06:12:19.
# via modflow-setup version 0.6.0 at 2025-02-01 06:12:19
BEGIN options
  PRINT_OPTION  all
  COMPLEXITY  moderate
  CSV_OUTER_OUTPUT  FILEOUT  solver_outer_out.csv
  NO_PTC ALL
END options

BEGIN nonlinear
  OUTER_DVCLOSE       0.01000000
END nonlinear

BEGIN linear
  INNER_DVCLOSE  5.00000000E-06
END linear

