# File generated by Flopy version 3.9.1 on 04/01/2025 at 21:59:56.
BEGIN options
END options

BEGIN griddata
  strt
    CONSTANT      50.00000000
END griddata

