# File generated by Flopy version 3.9.1 on 04/03/2025 at 15:41:41.
BEGIN options
END options

BEGIN griddata
  strt
    CONSTANT      50.00000000
END griddata

