# File generated by Flopy version 3.9.1 on 04/02/2025 at 16:17:16.
BEGIN options
END options

BEGIN griddata
  strt
    CONSTANT      50.00000000
END griddata

