# File generated by Flopy version 3.9.1 on 04/01/2025 at 21:59:56.
BEGIN options
END options

BEGIN continuous  FILEOUT  ex-gwf-advtidal.obs.flow.csv
  icf1  flow-ja-face  1 5 6  1 6 6
END continuous  FILEOUT  ex-gwf-advtidal.obs.flow.csv

BEGIN continuous  FILEOUT  ex-gwf-advtidal.obs.head.csv
  h1_13_8  head  3 13 8
END continuous  FILEOUT  ex-gwf-advtidal.obs.head.csv

