# File generated by Flopy version 3.9.1 on 04/04/2025 at 11:04:04.
BEGIN options
END options

BEGIN griddata
  strt
    CONSTANT      50.00000000
END griddata

