# File generated by Flopy version 3.9.1 on 04/03/2025 at 15:41:41.
BEGIN options
  BUDGET  FILEOUT  ex-gwf-advtidal.cbc
  HEAD  FILEOUT  ex-gwf-advtidal.hds
END options

BEGIN period  1
  SAVE  HEAD  ALL
  SAVE  BUDGET  ALL
END period  1

