# File generated by Flopy version 3.9.1 on 04/06/2025 at 08:51:38.
BEGIN options
END options

BEGIN griddata
  strt
    CONSTANT      50.00000000
END griddata

