# Pleasant Lake test case version 0.1.post55.dev0+g106385f
# File generated by Flopy version 3.10.0.dev1 on 01/31/2025 at 10:09:05.
# via modflow-setup version 0.6.0 at 2025-01-31 10:09:05
BEGIN options
END options

BEGIN continuous  FILEOUT  plsnt_lgr_parent.chd.obs.output.csv
  perimeter-head  chd  perimeter-head
  perimeter-heads  chd  perimeter-heads
END continuous  FILEOUT  plsnt_lgr_parent.chd.obs.output.csv

