# File generated by Flopy version 3.9.1 on 03/01/2025 at 08:10:42.
BEGIN options
  BUDGET  FILEOUT  gwf-p09-mf6.bud
  HEAD  FILEOUT  gwf-p09-mf6.hds
  HEAD  PRINT_FORMAT  COLUMNS  10  WIDTH  15  DIGITS  6  GENERAL
END options

BEGIN period  1
  SAVE  HEAD  LAST
  SAVE  BUDGET  LAST
  PRINT  HEAD  LAST
  PRINT  BUDGET  LAST
END period  1

