# File generated by Flopy version 3.9.1 on 02/15/2025 at 16:24:51.
BEGIN options
  BUDGET  FILEOUT  gwf_A.cbc
  HEAD  FILEOUT  gwf_A.hds
  HEAD  PRINT_FORMAT  COLUMNS  10  WIDTH  15  DIGITS  6  GENERAL
END options

BEGIN period  1
  SAVE  HEAD  LAST
  SAVE  BUDGET  LAST
  PRINT  HEAD  LAST
  PRINT  BUDGET  LAST
END period  1

