# File generated by Flopy version 3.9.1 on 02/17/2025 at 07:28:44.
BEGIN options
  SAVE_FLOWS
END options

BEGIN packages
  DIS6  gwf_A.dis  dis
  NPF6  gwf_A.npf  npf
  IC6  gwf_A.ic  ic
  CHD6  gwf_A.chd  chd-1
  OC6  gwf_A.oc  oc
END packages

