# File generated by Flopy version 3.9.1 on 02/15/2025 at 16:24:11.
BEGIN options
  XT3D_OFF
END options

BEGIN griddata
  alh
    CONSTANT    1000.00000000
  ath1
    CONSTANT    1000.00000000
END griddata

