# File generated by Flopy version 3.9.1 on 02/17/2025 at 07:28:44.
BEGIN options
  FIRST_ORDER_DECAY
END options

BEGIN griddata
  porosity
    CONSTANT       0.25000000
  decay
    CONSTANT       0.00100000
  decay_sorbed
    CONSTANT       0.00100000
END griddata

