# File generated by Flopy version 3.9.1 on 02/15/2025 at 16:24:51.
BEGIN options
  SAVE_FLOWS
END options

BEGIN packages
  DIS6  gwt_A.dis  dis
  IC6  gwt_A.ic  ic
  ADV6  gwt_A.adv  adv
  MST6  gwt_A.mst  mst
  CNC6  gwt_A.cnc  cnc-1
  SSM6  gwt_A.ssm  ssm
  OC6  gwt_A.oc  oc
END packages

