# File generated by Flopy version 3.9.1 on 02/17/2025 at 07:28:44.
BEGIN options
END options

BEGIN timing
  TDIS6  sim_A.tdis
END timing

BEGIN models
  gwf6  gwf_A.nam  gwf_A
  gwt6  gwt_A.nam  gwt_A
END models

BEGIN exchanges
  GWF6-GWT6  name.gwfgwt  gwf_A  gwt_A
END exchanges

BEGIN solutiongroup  1
  ims6  gwf_A.ims  gwf_A
  ims6  gwt_A.ims  gwt_A
END solutiongroup  1

