## BTN for MT3DMS, generated by Flopy.
##
         1        50        50         1         1         1
D   M   KG  
T T T F T 
 0
         0        20                           -1 #delr
         0        20                           -1 #delc
         0         0                           -1 #htop
        31         1          (50E15.6)        -1 #dz layer 1
   5.000000E+01   5.000000E+01   5.000000E+01   5.000000E+01   5.000000E+01   5.000000E+01   5.000000E+01   5.000000E+01   5.000000E+01   5.000000E+01   5.000000E+01   5.000000E+01   5.000000E+01   5.000000E+01   5.000000E+01   5.000000E+01   5.000000E+01   5.000000E+01   5.000000E+01   5.000000E+01   5.000000E+01   5.000000E+01   5.000000E+01   5.000000E+01   5.000000E+01   5.000000E+01   5.000000E+01   5.000000E+01   5.000000E+01   5.000000E+01   5.000000E+01   5.000000E+01   5.000000E+01   5.000000E+01   5.000000E+01   5.000000E+01   5.000000E+01   5.000000E+01   5.000000E+01   5.000000E+01   5.000000E+01   5.000000E+01   5.000000E+01   5.000000E+01   5.000000E+01   5.000000E+01   5.000000E+01   5.000000E+01   5.000000E+01   5.000000E+01
   5.000000E+01   5.000000E+01   5.000000E+01   5.000000E+01   5.000000E+01   5.000000E+01   5.000000E+01   5.000000E+01   5.000000E+01   5.000000E+01   5.000000E+01   5.000000E+01   5.000000E+01   5.000000E+01   5.000000E+01   5.000000E+01   5.000000E+01   5.000000E+01   5.000000E+01   5.000000E+01   5.000000E+01   5.000000E+01   5.000000E+01   5.000000E+01   5.000000E+01   5.000000E+01   5.000000E+01   5.000000E+01   5.000000E+01   5.000000E+01   5.000000E+01   5.000000E+01   5.000000E+01   5.000000E+01   5.000000E+01   5.000000E+01   5.000000E+01   5.000000E+01   5.000000E+01   5.000000E+01   5.000000E+01   5.000000E+01   5.000000E+01   5.000000E+01   5.000000E+01   5.000000E+01   5.000000E+01   5.000000E+01   5.000000E+01   5.000000E+01
   5.000000E+01   5.000000E+01   5.000000E+01   5.000000E+01   5.000000E+01   5.000000E+01   5.000000E+01   5.000000E+01   5.000000E+01   5.000000E+01   5.000000E+01   5.000000E+01   5.000000E+01   5.000000E+01   5.000000E+01   5.000000E+01   5.000000E+01   5.000000E+01   5.000000E+01   5.000000E+01   5.000000E+01   5.000000E+01   5.000000E+01   5.000000E+01   5.000000E+01   5.000000E+01   5.000000E+01   5.000000E+01   5.000000E+01   5.000000E+01   5.000000E+01   5.000000E+01   5.000000E+01   5.000000E+01   5.000000E+01   5.000000E+01   5.000000E+01   5.000000E+01   5.000000E+01   5.000000E+01   5.000000E+01   5.000000E+01   5.000000E+01   5.000000E+01   5.000000E+01   5.000000E+01   5.000000E+01   5.000000E+01   5.000000E+01   5.000000E+01
   5.000000E+01   5.000000E+01   5.000000E+01   5.000000E+01   5.000000E+01   5.000000E+01   5.000000E+01   5.000000E+01   5.000000E+01   5.000000E+01   5.000000E+01   5.000000E+01   5.000000E+01   5.000000E+01   5.000000E+01   5.000000E+01   5.000000E+01   5.000000E+01   5.000000E+01   5.000000E+01   5.000000E+01   5.000000E+01   5.000000E+01   5.000000E+01   5.000000E+01   5.000000E+01   5.000000E+01   5.000000E+01   5.000000E+01   5.000000E+01   5.000000E+01   5.000000E+01   5.000000E+01   5.000000E+01   5.000000E+01   5.000000E+01   5.000000E+01   5.000000E+01   5.000000E+01   5.000000E+01   5.000000E+01   5.000000E+01   5.000000E+01   5.000000E+01   5.000000E+01   5.000000E+01   5.000000E+01   5.000000E+01   5.000000E+01   5.000000E+01
   5.000000E+01   5.000000E+01   5.000000E+01   5.000000E+01   5.000000E+01   5.000000E+01   5.000000E+01   5.000000E+01   5.000000E+01   5.000000E+01   5.000000E+01   5.000000E+01   5.000000E+01   5.000000E+01   5.000000E+01   5.000000E+01   5.000000E+01   5.000000E+01   5.000000E+01   5.000000E+01   5.000000E+01   5.000000E+01   5.000000E+01   5.000000E+01   5.000000E+01   5.000000E+01   5.000000E+01   5.000000E+01   5.000000E+01   5.000000E+01   5.000000E+01   5.000000E+01   5.000000E+01   5.000000E+01   5.000000E+01   5.000000E+01   5.000000E+01   5.000000E+01   5.000000E+01   5.000000E+01   5.000000E+01   5.000000E+01   5.000000E+01   5.000000E+01   5.000000E+01   5.000000E+01   5.000000E+01   5.000000E+01   5.000000E+01   5.000000E+01
   5.000000E+01   5.000000E+01   5.000000E+01   5.000000E+01   5.000000E+01   5.000000E+01   5.000000E+01   5.000000E+01   5.000000E+01   5.000000E+01   5.000000E+01   5.000000E+01   5.000000E+01   5.000000E+01   5.000000E+01   5.000000E+01   5.000000E+01   5.000000E+01   5.000000E+01   5.000000E+01   5.000000E+01   5.000000E+01   5.000000E+01   5.000000E+01   5.000000E+01   5.000000E+01   5.000000E+01   5.000000E+01   5.000000E+01   5.000000E+01   5.000000E+01   5.000000E+01   5.000000E+01   5.000000E+01   5.000000E+01   5.000000E+01   5.000000E+01   5.000000E+01   5.000000E+01   5.000000E+01   5.000000E+01   5.000000E+01   5.000000E+01   5.000000E+01   5.000000E+01   5.000000E+01   5.000000E+01   5.000000E+01   5.000000E+01   5.000000E+01
   5.000000E+01   5.000000E+01   5.000000E+01   5.000000E+01   5.000000E+01   5.000000E+01   5.000000E+01   5.000000E+01   5.000000E+01   5.000000E+01   5.000000E+01   5.000000E+01   5.000000E+01   5.000000E+01   5.000000E+01   5.000000E+01   5.000000E+01   5.000000E+01   5.000000E+01   5.000000E+01   5.000000E+01   5.000000E+01   5.000000E+01   5.000000E+01   5.000000E+01   5.000000E+01   5.000000E+01   5.000000E+01   5.000000E+01   5.000000E+01   5.000000E+01   5.000000E+01   5.000000E+01   5.000000E+01   5.000000E+01   5.000000E+01   5.000000E+01   5.000000E+01   5.000000E+01   5.000000E+01   5.000000E+01   5.000000E+01   5.000000E+01   5.000000E+01   5.000000E+01   5.000000E+01   5.000000E+01   5.000000E+01   5.000000E+01   5.000000E+01
   5.000000E+01   5.000000E+01   5.000000E+01   5.000000E+01   5.000000E+01   5.000000E+01   5.000000E+01   5.000000E+01   5.000000E+01   5.000000E+01   5.000000E+01   5.000000E+01   5.000000E+01   5.000000E+01   5.000000E+01   5.000000E+01   5.000000E+01   5.000000E+01   5.000000E+01   5.000000E+01   5.000000E+01   5.000000E+01   5.000000E+01   5.000000E+01   5.000000E+01   5.000000E+01   5.000000E+01   5.000000E+01   5.000000E+01   5.000000E+01   5.000000E+01   5.000000E+01   5.000000E+01   5.000000E+01   5.000000E+01   5.000000E+01   5.000000E+01   5.000000E+01   5.000000E+01   5.000000E+01   5.000000E+01   5.000000E+01   5.000000E+01   5.000000E+01   5.000000E+01   5.000000E+01   5.000000E+01   5.000000E+01   5.000000E+01   5.000000E+01
   5.000000E+01   5.000000E+01   5.000000E+01   5.000000E+01   5.000000E+01   5.000000E+01   5.000000E+01   5.000000E+01   5.000000E+01   5.000000E+01   5.000000E+01   5.000000E+01   5.000000E+01   5.000000E+01   5.000000E+01   5.000000E+01   5.000000E+01   5.000000E+01   5.000000E+01   5.000000E+01   5.000000E+01   5.000000E+01   5.000000E+01   5.000000E+01   5.000000E+01   5.000000E+01   5.000000E+01   5.000000E+01   5.000000E+01   5.000000E+01   5.000000E+01   5.000000E+01   5.000000E+01   5.000000E+01   5.000000E+01   5.000000E+01   5.000000E+01   5.000000E+01   5.000000E+01   5.000000E+01   5.000000E+01   5.000000E+01   5.000000E+01   5.000000E+01   5.000000E+01   5.000000E+01   5.000000E+01   5.000000E+01   5.000000E+01   5.000000E+01
   5.000000E+01   5.000000E+01   5.000000E+01   5.000000E+01   5.000000E+01   5.000000E+01   5.000000E+01   5.000000E+01   5.000000E+01   5.000000E+01   5.000000E+01   5.000000E+01   5.000000E+01   5.000000E+01   5.000000E+01   5.000000E+01   5.000000E+01   5.000000E+01   5.000000E+01   5.000000E+01   5.000000E+01   5.000000E+01   5.000000E+01   5.000000E+01   5.000000E+01   5.000000E+01   5.000000E+01   5.000000E+01   5.000000E+01   5.000000E+01   5.000000E+01   5.000000E+01   5.000000E+01   5.000000E+01   5.000000E+01   5.000000E+01   5.000000E+01   5.000000E+01   5.000000E+01   5.000000E+01   5.000000E+01   5.000000E+01   5.000000E+01   5.000000E+01   5.000000E+01   5.000000E+01   5.000000E+01   5.000000E+01   5.000000E+01   5.000000E+01
   5.000000E+01   5.000000E+01   5.000000E+01   5.000000E+01   5.000000E+01   5.000000E+01   5.000000E+01   5.000000E+01   5.000000E+01   5.000000E+01   5.000000E+01   5.000000E+01   5.000000E+01   5.000000E+01   5.000000E+01   5.000000E+01   5.000000E+01   5.000000E+01   5.000000E+01   5.000000E+01   5.000000E+01   5.000000E+01   5.000000E+01   5.000000E+01   5.000000E+01   5.000000E+01   5.000000E+01   5.000000E+01   5.000000E+01   5.000000E+01   5.000000E+01   5.000000E+01   5.000000E+01   5.000000E+01   5.000000E+01   5.000000E+01   5.000000E+01   5.000000E+01   5.000000E+01   5.000000E+01   5.000000E+01   5.000000E+01   5.000000E+01   5.000000E+01   5.000000E+01   5.000000E+01   5.000000E+01   5.000000E+01   5.000000E+01   5.000000E+01
   5.000000E+01   5.000000E+01   5.000000E+01   5.000000E+01   5.000000E+01   5.000000E+01   5.000000E+01   5.000000E+01   5.000000E+01   5.000000E+01   5.000000E+01   5.000000E+01   5.000000E+01   5.000000E+01   5.000000E+01   5.000000E+01   5.000000E+01   5.000000E+01   5.000000E+01   5.000000E+01   5.000000E+01   5.000000E+01   5.000000E+01   5.000000E+01   5.000000E+01   5.000000E+01   5.000000E+01   5.000000E+01   5.000000E+01   5.000000E+01   5.000000E+01   5.000000E+01   5.000000E+01   5.000000E+01   5.000000E+01   5.000000E+01   5.000000E+01   5.000000E+01   5.000000E+01   5.000000E+01   5.000000E+01   5.000000E+01   5.000000E+01   5.000000E+01   5.000000E+01   5.000000E+01   5.000000E+01   5.000000E+01   5.000000E+01   5.000000E+01
   5.000000E+01   5.000000E+01   5.000000E+01   5.000000E+01   5.000000E+01   5.000000E+01   5.000000E+01   5.000000E+01   5.000000E+01   5.000000E+01   5.000000E+01   5.000000E+01   5.000000E+01   5.000000E+01   5.000000E+01   5.000000E+01   5.000000E+01   5.000000E+01   5.000000E+01   5.000000E+01   5.000000E+01   5.000000E+01   5.000000E+01   5.000000E+01   5.000000E+01   5.000000E+01   5.000000E+01   5.000000E+01   5.000000E+01   5.000000E+01   5.000000E+01   5.000000E+01   5.000000E+01   5.000000E+01   5.000000E+01   5.000000E+01   5.000000E+01   5.000000E+01   5.000000E+01   5.000000E+01   5.000000E+01   5.000000E+01   5.000000E+01   5.000000E+01   5.000000E+01   5.000000E+01   5.000000E+01   5.000000E+01   5.000000E+01   5.000000E+01
   5.000000E+01   5.000000E+01   5.000000E+01   5.000000E+01   5.000000E+01   5.000000E+01   5.000000E+01   5.000000E+01   5.000000E+01   5.000000E+01   5.000000E+01   5.000000E+01   5.000000E+01   5.000000E+01   5.000000E+01   5.000000E+01   5.000000E+01   5.000000E+01   5.000000E+01   5.000000E+01   5.000000E+01   5.000000E+01   5.000000E+01   5.000000E+01   5.000000E+01   5.000000E+01   5.000000E+01   5.000000E+01   5.000000E+01   5.000000E+01   5.000000E+01   5.000000E+01   5.000000E+01   5.000000E+01   5.000000E+01   5.000000E+01   5.000000E+01   5.000000E+01   5.000000E+01   5.000000E+01   5.000000E+01   5.000000E+01   5.000000E+01   5.000000E+01   5.000000E+01   5.000000E+01   5.000000E+01   5.000000E+01   5.000000E+01   5.000000E+01
   5.000000E+01   5.000000E+01   5.000000E+01   5.000000E+01   5.000000E+01   5.000000E+01   5.000000E+01   5.000000E+01   5.000000E+01   5.000000E+01   5.000000E+01   5.000000E+01   5.000000E+01   5.000000E+01   5.000000E+01   5.000000E+01   5.000000E+01   5.000000E+01   5.000000E+01   5.000000E+01   5.000000E+01   5.000000E+01   5.000000E+01   5.000000E+01   5.000000E+01   5.000000E+01   5.000000E+01   5.000000E+01   5.000000E+01   5.000000E+01   5.000000E+01   5.000000E+01   5.000000E+01   5.000000E+01   5.000000E+01   5.000000E+01   5.000000E+01   5.000000E+01   5.000000E+01   5.000000E+01   5.000000E+01   5.000000E+01   5.000000E+01   5.000000E+01   5.000000E+01   5.000000E+01   5.000000E+01   5.000000E+01   5.000000E+01   5.000000E+01
   5.000000E+01   5.000000E+01   5.000000E+01   5.000000E+01   5.000000E+01   5.000000E+01   5.000000E+01   5.000000E+01   5.000000E+01   5.000000E+01   5.000000E+01   5.000000E+01   5.000000E+01   5.000000E+01   5.000000E+01   5.000000E+01   5.000000E+01   5.000000E+01   5.000000E+01   5.000000E+01   5.000000E+01   5.000000E+01   5.000000E+01   5.000000E+01   5.000000E+01   5.000000E+01   5.000000E+01   5.000000E+01   5.000000E+01   5.000000E+01   5.000000E+01   5.000000E+01   5.000000E+01   5.000000E+01   5.000000E+01   5.000000E+01   5.000000E+01   5.000000E+01   5.000000E+01   5.000000E+01   5.000000E+01   5.000000E+01   5.000000E+01   5.000000E+01   5.000000E+01   5.000000E+01   5.000000E+01   5.000000E+01   5.000000E+01   5.000000E+01
   5.000000E+01   5.000000E+01   5.000000E+01   5.000000E+01   5.000000E+01   5.000000E+01   5.000000E+01   5.000000E+01   5.000000E+01   5.000000E+01   5.000000E+01   5.000000E+01   5.000000E+01   5.000000E+01   5.000000E+01   5.000000E+01   5.000000E+01   5.000000E+01   5.000000E+01   5.000000E+01   5.000000E+01   5.000000E+01   5.000000E+01   5.000000E+01   5.000000E+01   5.000000E+01   5.000000E+01   5.000000E+01   5.000000E+01   5.000000E+01   5.000000E+01   5.000000E+01   5.000000E+01   5.000000E+01   5.000000E+01   5.000000E+01   5.000000E+01   5.000000E+01   5.000000E+01   5.000000E+01   5.000000E+01   5.000000E+01   5.000000E+01   5.000000E+01   5.000000E+01   5.000000E+01   5.000000E+01   5.000000E+01   5.000000E+01   5.000000E+01
   5.000000E+01   5.000000E+01   5.000000E+01   5.000000E+01   5.000000E+01   5.000000E+01   5.000000E+01   5.000000E+01   5.000000E+01   5.000000E+01   5.000000E+01   5.000000E+01   5.000000E+01   5.000000E+01   5.000000E+01   5.000000E+01   5.000000E+01   5.000000E+01   5.000000E+01   5.000000E+01   5.000000E+01   5.000000E+01   5.000000E+01   5.000000E+01   5.000000E+01   5.000000E+01   5.000000E+01   5.000000E+01   5.000000E+01   5.000000E+01   5.000000E+01   5.000000E+01   5.000000E+01   5.000000E+01   5.000000E+01   5.000000E+01   5.000000E+01   5.000000E+01   5.000000E+01   5.000000E+01   5.000000E+01   5.000000E+01   5.000000E+01   5.000000E+01   5.000000E+01   5.000000E+01   5.000000E+01   5.000000E+01   5.000000E+01   5.000000E+01
   5.000000E+01   5.000000E+01   5.000000E+01   5.000000E+01   5.000000E+01   5.000000E+01   5.000000E+01   5.000000E+01   5.000000E+01   5.000000E+01   5.000000E+01   5.000000E+01   5.000000E+01   5.000000E+01   5.000000E+01   5.000000E+01   5.000000E+01   5.000000E+01   5.000000E+01   5.000000E+01   5.000000E+01   5.000000E+01   5.000000E+01   5.000000E+01   5.000000E+01   5.000000E+01   5.000000E+01   5.000000E+01   5.000000E+01   5.000000E+01   5.000000E+01   5.000000E+01   5.000000E+01   5.000000E+01   5.000000E+01   5.000000E+01   5.000000E+01   5.000000E+01   5.000000E+01   5.000000E+01   5.000000E+01   5.000000E+01   5.000000E+01   5.000000E+01   5.000000E+01   5.000000E+01   5.000000E+01   5.000000E+01   5.000000E+01   5.000000E+01
   5.000000E+01   5.000000E+01   5.000000E+01   5.000000E+01   5.000000E+01   5.000000E+01   5.000000E+01   5.000000E+01   5.000000E+01   5.000000E+01   5.000000E+01   5.000000E+01   5.000000E+01   5.000000E+01   5.000000E+01   5.000000E+01   5.000000E+01   5.000000E+01   5.000000E+01   5.000000E+01   5.000000E+01   5.000000E+01   5.000000E+01   5.000000E+01   5.000000E+01   5.000000E+01   5.000000E+01   5.000000E+01   5.000000E+01   5.000000E+01   5.000000E+01   5.000000E+01   5.000000E+01   5.000000E+01   5.000000E+01   5.000000E+01   5.000000E+01   5.000000E+01   5.000000E+01   5.000000E+01   5.000000E+01   5.000000E+01   5.000000E+01   5.000000E+01   5.000000E+01   5.000000E+01   5.000000E+01   5.000000E+01   5.000000E+01   5.000000E+01
   5.000000E+01   5.000000E+01   5.000000E+01   5.000000E+01   5.000000E+01   5.000000E+01   5.000000E+01   5.000000E+01   5.000000E+01   5.000000E+01   5.000000E+01   5.000000E+01   5.000000E+01   5.000000E+01   5.000000E+01   5.000000E+01   5.000000E+01   5.000000E+01   5.000000E+01   5.000000E+01   5.000000E+01   5.000000E+01   5.000000E+01   5.000000E+01   5.000000E+01   5.000000E+01   5.000000E+01   5.000000E+01   5.000000E+01   5.000000E+01   5.000000E+01   5.000000E+01   5.000000E+01   5.000000E+01   5.000000E+01   5.000000E+01   5.000000E+01   5.000000E+01   5.000000E+01   5.000000E+01   5.000000E+01   5.000000E+01   5.000000E+01   5.000000E+01   5.000000E+01   5.000000E+01   5.000000E+01   5.000000E+01   5.000000E+01   5.000000E+01
   5.000000E+01   5.000000E+01   5.000000E+01   5.000000E+01   5.000000E+01   5.000000E+01   5.000000E+01   5.000000E+01   5.000000E+01   5.000000E+01   5.000000E+01   5.000000E+01   5.000000E+01   5.000000E+01   5.000000E+01   5.000000E+01   5.000000E+01   5.000000E+01   5.000000E+01   5.000000E+01   5.000000E+01   5.000000E+01   5.000000E+01   5.000000E+01   5.000000E+01   5.000000E+01   5.000000E+01   5.000000E+01   5.000000E+01   5.000000E+01   5.000000E+01   5.000000E+01   5.000000E+01   5.000000E+01   5.000000E+01   5.000000E+01   5.000000E+01   5.000000E+01   5.000000E+01   5.000000E+01   5.000000E+01   5.000000E+01   5.000000E+01   5.000000E+01   5.000000E+01   5.000000E+01   5.000000E+01   5.000000E+01   5.000000E+01   5.000000E+01
   5.000000E+01   5.000000E+01   5.000000E+01   5.000000E+01   5.000000E+01   5.000000E+01   5.000000E+01   5.000000E+01   5.000000E+01   5.000000E+01   5.000000E+01   5.000000E+01   5.000000E+01   5.000000E+01   5.000000E+01   5.000000E+01   5.000000E+01   5.000000E+01   5.000000E+01   5.000000E+01   5.000000E+01   5.000000E+01   5.000000E+01   5.000000E+01   5.000000E+01   5.000000E+01   5.000000E+01   5.000000E+01   5.000000E+01   5.000000E+01   5.000000E+01   5.000000E+01   5.000000E+01   5.000000E+01   5.000000E+01   5.000000E+01   5.000000E+01   5.000000E+01   5.000000E+01   5.000000E+01   5.000000E+01   5.000000E+01   5.000000E+01   5.000000E+01   5.000000E+01   5.000000E+01   5.000000E+01   5.000000E+01   5.000000E+01   5.000000E+01
   5.000000E+01   5.000000E+01   5.000000E+01   5.000000E+01   5.000000E+01   5.000000E+01   5.000000E+01   5.000000E+01   5.000000E+01   5.000000E+01   5.000000E+01   5.000000E+01   5.000000E+01   5.000000E+01   5.000000E+01   5.000000E+01   5.000000E+01   5.000000E+01   5.000000E+01   5.000000E+01   5.000000E+01   5.000000E+01   5.000000E+01   5.000000E+01   5.000000E+01   5.000000E+01   5.000000E+01   5.000000E+01   5.000000E+01   5.000000E+01   5.000000E+01   5.000000E+01   5.000000E+01   5.000000E+01   5.000000E+01   5.000000E+01   5.000000E+01   5.000000E+01   5.000000E+01   5.000000E+01   5.000000E+01   5.000000E+01   5.000000E+01   5.000000E+01   5.000000E+01   5.000000E+01   5.000000E+01   5.000000E+01   5.000000E+01   5.000000E+01
   5.000000E+01   5.000000E+01   5.000000E+01   5.000000E+01   5.000000E+01   5.000000E+01   5.000000E+01   5.000000E+01   5.000000E+01   5.000000E+01   5.000000E+01   5.000000E+01   5.000000E+01   5.000000E+01   5.000000E+01   5.000000E+01   5.000000E+01   5.000000E+01   5.000000E+01   5.000000E+01   5.000000E+01   5.000000E+01   5.000000E+01   5.000000E+01   5.000000E+01   5.000000E+01   5.000000E+01   5.000000E+01   5.000000E+01   5.000000E+01   5.000000E+01   5.000000E+01   5.000000E+01   5.000000E+01   5.000000E+01   5.000000E+01   5.000000E+01   5.000000E+01   5.000000E+01   5.000000E+01   5.000000E+01   5.000000E+01   5.000000E+01   5.000000E+01   5.000000E+01   5.000000E+01   5.000000E+01   5.000000E+01   5.000000E+01   5.000000E+01
   5.000000E+01   5.000000E+01   5.000000E+01   5.000000E+01   5.000000E+01   5.000000E+01   5.000000E+01   5.000000E+01   5.000000E+01   5.000000E+01   5.000000E+01   5.000000E+01   5.000000E+01   5.000000E+01   5.000000E+01   5.000000E+01   5.000000E+01   5.000000E+01   5.000000E+01   5.000000E+01   5.000000E+01   5.000000E+01   5.000000E+01   5.000000E+01   5.000000E+01   5.000000E+01   5.000000E+01   5.000000E+01   5.000000E+01   5.000000E+01   5.000000E+01   5.000000E+01   5.000000E+01   5.000000E+01   5.000000E+01   5.000000E+01   5.000000E+01   5.000000E+01   5.000000E+01   5.000000E+01   5.000000E+01   5.000000E+01   5.000000E+01   5.000000E+01   5.000000E+01   5.000000E+01   5.000000E+01   5.000000E+01   5.000000E+01   5.000000E+01
   5.000000E+01   5.000000E+01   5.000000E+01   5.000000E+01   5.000000E+01   5.000000E+01   5.000000E+01   5.000000E+01   5.000000E+01   5.000000E+01   5.000000E+01   5.000000E+01   5.000000E+01   5.000000E+01   5.000000E+01   5.000000E+01   5.000000E+01   5.000000E+01   5.000000E+01   5.000000E+01   5.000000E+01   5.000000E+01   5.000000E+01   5.000000E+01   5.000000E+01   5.000000E+01   5.000000E+01   5.000000E+01   5.000000E+01   5.000000E+01   5.000000E+01   5.000000E+01   5.000000E+01   5.000000E+01   5.000000E+01   5.000000E+01   5.000000E+01   5.000000E+01   5.000000E+01   5.000000E+01   5.000000E+01   5.000000E+01   5.000000E+01   5.000000E+01   5.000000E+01   5.000000E+01   5.000000E+01   5.000000E+01   5.000000E+01   5.000000E+01
   5.000000E+01   5.000000E+01   5.000000E+01   5.000000E+01   5.000000E+01   5.000000E+01   5.000000E+01   5.000000E+01   5.000000E+01   5.000000E+01   5.000000E+01   5.000000E+01   5.000000E+01   5.000000E+01   5.000000E+01   5.000000E+01   5.000000E+01   5.000000E+01   5.000000E+01   5.000000E+01   5.000000E+01   5.000000E+01   5.000000E+01   5.000000E+01   5.000000E+01   5.000000E+01   5.000000E+01   5.000000E+01   5.000000E+01   5.000000E+01   5.000000E+01   5.000000E+01   5.000000E+01   5.000000E+01   5.000000E+01   5.000000E+01   5.000000E+01   5.000000E+01   5.000000E+01   5.000000E+01   5.000000E+01   5.000000E+01   5.000000E+01   5.000000E+01   5.000000E+01   5.000000E+01   5.000000E+01   5.000000E+01   5.000000E+01   5.000000E+01
   5.000000E+01   5.000000E+01   5.000000E+01   5.000000E+01   5.000000E+01   5.000000E+01   5.000000E+01   5.000000E+01   5.000000E+01   5.000000E+01   5.000000E+01   5.000000E+01   5.000000E+01   5.000000E+01   5.000000E+01   5.000000E+01   5.000000E+01   5.000000E+01   5.000000E+01   5.000000E+01   5.000000E+01   5.000000E+01   5.000000E+01   5.000000E+01   5.000000E+01   5.000000E+01   5.000000E+01   5.000000E+01   5.000000E+01   5.000000E+01   5.000000E+01   5.000000E+01   5.000000E+01   5.000000E+01   5.000000E+01   5.000000E+01   5.000000E+01   5.000000E+01   5.000000E+01   5.000000E+01   5.000000E+01   5.000000E+01   5.000000E+01   5.000000E+01   5.000000E+01   5.000000E+01   5.000000E+01   5.000000E+01   5.000000E+01   5.000000E+01
   5.000000E+01   5.000000E+01   5.000000E+01   5.000000E+01   5.000000E+01   5.000000E+01   5.000000E+01   5.000000E+01   5.000000E+01   5.000000E+01   5.000000E+01   5.000000E+01   5.000000E+01   5.000000E+01   5.000000E+01   5.000000E+01   5.000000E+01   5.000000E+01   5.000000E+01   5.000000E+01   5.000000E+01   5.000000E+01   5.000000E+01   5.000000E+01   5.000000E+01   5.000000E+01   5.000000E+01   5.000000E+01   5.000000E+01   5.000000E+01   5.000000E+01   5.000000E+01   5.000000E+01   5.000000E+01   5.000000E+01   5.000000E+01   5.000000E+01   5.000000E+01   5.000000E+01   5.000000E+01   5.000000E+01   5.000000E+01   5.000000E+01   5.000000E+01   5.000000E+01   5.000000E+01   5.000000E+01   5.000000E+01   5.000000E+01   5.000000E+01
   5.000000E+01   5.000000E+01   5.000000E+01   5.000000E+01   5.000000E+01   5.000000E+01   5.000000E+01   5.000000E+01   5.000000E+01   5.000000E+01   5.000000E+01   5.000000E+01   5.000000E+01   5.000000E+01   5.000000E+01   5.000000E+01   5.000000E+01   5.000000E+01   5.000000E+01   5.000000E+01   5.000000E+01   5.000000E+01   5.000000E+01   5.000000E+01   5.000000E+01   5.000000E+01   5.000000E+01   5.000000E+01   5.000000E+01   5.000000E+01   5.000000E+01   5.000000E+01   5.000000E+01   5.000000E+01   5.000000E+01   5.000000E+01   5.000000E+01   5.000000E+01   5.000000E+01   5.000000E+01   5.000000E+01   5.000000E+01   5.000000E+01   5.000000E+01   5.000000E+01   5.000000E+01   5.000000E+01   5.000000E+01   5.000000E+01   5.000000E+01
   5.000000E+01   5.000000E+01   5.000000E+01   5.000000E+01   5.000000E+01   5.000000E+01   5.000000E+01   5.000000E+01   5.000000E+01   5.000000E+01   5.000000E+01   5.000000E+01   5.000000E+01   5.000000E+01   5.000000E+01   5.000000E+01   5.000000E+01   5.000000E+01   5.000000E+01   5.000000E+01   5.000000E+01   5.000000E+01   5.000000E+01   5.000000E+01   5.000000E+01   5.000000E+01   5.000000E+01   5.000000E+01   5.000000E+01   5.000000E+01   5.000000E+01   5.000000E+01   5.000000E+01   5.000000E+01   5.000000E+01   5.000000E+01   5.000000E+01   5.000000E+01   5.000000E+01   5.000000E+01   5.000000E+01   5.000000E+01   5.000000E+01   5.000000E+01   5.000000E+01   5.000000E+01   5.000000E+01   5.000000E+01   5.000000E+01   5.000000E+01
   5.000000E+01   5.000000E+01   5.000000E+01   5.000000E+01   5.000000E+01   5.000000E+01   5.000000E+01   5.000000E+01   5.000000E+01   5.000000E+01   5.000000E+01   5.000000E+01   5.000000E+01   5.000000E+01   5.000000E+01   5.000000E+01   5.000000E+01   5.000000E+01   5.000000E+01   5.000000E+01   5.000000E+01   5.000000E+01   5.000000E+01   5.000000E+01   5.000000E+01   5.000000E+01   5.000000E+01   5.000000E+01   5.000000E+01   5.000000E+01   5.000000E+01   5.000000E+01   5.000000E+01   5.000000E+01   5.000000E+01   5.000000E+01   5.000000E+01   5.000000E+01   5.000000E+01   5.000000E+01   5.000000E+01   5.000000E+01   5.000000E+01   5.000000E+01   5.000000E+01   5.000000E+01   5.000000E+01   5.000000E+01   5.000000E+01   5.000000E+01
   5.000000E+01   5.000000E+01   5.000000E+01   5.000000E+01   5.000000E+01   5.000000E+01   5.000000E+01   5.000000E+01   5.000000E+01   5.000000E+01   5.000000E+01   5.000000E+01   5.000000E+01   5.000000E+01   5.000000E+01   5.000000E+01   5.000000E+01   5.000000E+01   5.000000E+01   5.000000E+01   5.000000E+01   5.000000E+01   5.000000E+01   5.000000E+01   5.000000E+01   5.000000E+01   5.000000E+01   5.000000E+01   5.000000E+01   5.000000E+01   5.000000E+01   5.000000E+01   5.000000E+01   5.000000E+01   5.000000E+01   5.000000E+01   5.000000E+01   5.000000E+01   5.000000E+01   5.000000E+01   5.000000E+01   5.000000E+01   5.000000E+01   5.000000E+01   5.000000E+01   5.000000E+01   5.000000E+01   5.000000E+01   5.000000E+01   5.000000E+01
   5.000000E+01   5.000000E+01   5.000000E+01   5.000000E+01   5.000000E+01   5.000000E+01   5.000000E+01   5.000000E+01   5.000000E+01   5.000000E+01   5.000000E+01   5.000000E+01   5.000000E+01   5.000000E+01   5.000000E+01   5.000000E+01   5.000000E+01   5.000000E+01   5.000000E+01   5.000000E+01   5.000000E+01   5.000000E+01   5.000000E+01   5.000000E+01   5.000000E+01   5.000000E+01   5.000000E+01   5.000000E+01   5.000000E+01   5.000000E+01   5.000000E+01   5.000000E+01   5.000000E+01   5.000000E+01   5.000000E+01   5.000000E+01   5.000000E+01   5.000000E+01   5.000000E+01   5.000000E+01   5.000000E+01   5.000000E+01   5.000000E+01   5.000000E+01   5.000000E+01   5.000000E+01   5.000000E+01   5.000000E+01   5.000000E+01   5.000000E+01
   5.000000E+01   5.000000E+01   5.000000E+01   5.000000E+01   5.000000E+01   5.000000E+01   5.000000E+01   5.000000E+01   5.000000E+01   5.000000E+01   5.000000E+01   5.000000E+01   5.000000E+01   5.000000E+01   5.000000E+01   5.000000E+01   5.000000E+01   5.000000E+01   5.000000E+01   5.000000E+01   5.000000E+01   5.000000E+01   5.000000E+01   5.000000E+01   5.000000E+01   5.000000E+01   5.000000E+01   5.000000E+01   5.000000E+01   5.000000E+01   5.000000E+01   5.000000E+01   5.000000E+01   5.000000E+01   5.000000E+01   5.000000E+01   5.000000E+01   5.000000E+01   5.000000E+01   5.000000E+01   5.000000E+01   5.000000E+01   5.000000E+01   5.000000E+01   5.000000E+01   5.000000E+01   5.000000E+01   5.000000E+01   5.000000E+01   5.000000E+01
   5.000000E+01   5.000000E+01   5.000000E+01   5.000000E+01   5.000000E+01   5.000000E+01   5.000000E+01   5.000000E+01   5.000000E+01   5.000000E+01   5.000000E+01   5.000000E+01   5.000000E+01   5.000000E+01   5.000000E+01   5.000000E+01   5.000000E+01   5.000000E+01   5.000000E+01   5.000000E+01   5.000000E+01   5.000000E+01   5.000000E+01   5.000000E+01   5.000000E+01   5.000000E+01   5.000000E+01   5.000000E+01   5.000000E+01   5.000000E+01   5.000000E+01   5.000000E+01   5.000000E+01   5.000000E+01   5.000000E+01   5.000000E+01   5.000000E+01   5.000000E+01   5.000000E+01   5.000000E+01   5.000000E+01   5.000000E+01   5.000000E+01   5.000000E+01   5.000000E+01   5.000000E+01   5.000000E+01   5.000000E+01   5.000000E+01   5.000000E+01
   5.000000E+01   5.000000E+01   5.000000E+01   5.000000E+01   5.000000E+01   5.000000E+01   5.000000E+01   5.000000E+01   5.000000E+01   5.000000E+01   5.000000E+01   5.000000E+01   5.000000E+01   5.000000E+01   5.000000E+01   5.000000E+01   5.000000E+01   5.000000E+01   5.000000E+01   5.000000E+01   5.000000E+01   5.000000E+01   5.000000E+01   5.000000E+01   5.000000E+01   5.000000E+01   5.000000E+01   5.000000E+01   5.000000E+01   5.000000E+01   5.000000E+01   5.000000E+01   5.000000E+01   5.000000E+01   5.000000E+01   5.000000E+01   5.000000E+01   5.000000E+01   5.000000E+01   5.000000E+01   5.000000E+01   5.000000E+01   5.000000E+01   5.000000E+01   5.000000E+01   5.000000E+01   5.000000E+01   5.000000E+01   5.000000E+01   5.000000E+01
   5.000000E+01   5.000000E+01   5.000000E+01   5.000000E+01   5.000000E+01   5.000000E+01   5.000000E+01   5.000000E+01   5.000000E+01   5.000000E+01   5.000000E+01   5.000000E+01   5.000000E+01   5.000000E+01   5.000000E+01   5.000000E+01   5.000000E+01   5.000000E+01   5.000000E+01   5.000000E+01   5.000000E+01   5.000000E+01   5.000000E+01   5.000000E+01   5.000000E+01   5.000000E+01   5.000000E+01   5.000000E+01   5.000000E+01   5.000000E+01   5.000000E+01   5.000000E+01   5.000000E+01   5.000000E+01   5.000000E+01   5.000000E+01   5.000000E+01   5.000000E+01   5.000000E+01   5.000000E+01   5.000000E+01   5.000000E+01   5.000000E+01   5.000000E+01   5.000000E+01   5.000000E+01   5.000000E+01   5.000000E+01   5.000000E+01   5.000000E+01