# File generated by Flopy version 3.8.2 on 06/20/2025 at 16:25:46.
BEGIN options
END options

BEGIN griddata
  strt
    CONSTANT       0.00000000
END griddata

