# File generated by Flopy version 3.8.2 on 01/20/2025 at 10:24:10.
BEGIN options
  PRINT_FLOWS
  SAVE_FLOWS
END options

BEGIN packages
  IC6  symp01.ic  ic
  DIS6  symp01.dis  dis
  NPF6  symp01.npf  npf
  RCH6  symp01.rcha  rch
  RIV6  symp01.riv  riv_0
  OC6  symp01.oc  oc
END packages

