# File generated by Flopy version 3.8.2 on 01/08/2025 at 16:23:58.
BEGIN options
  COMPLEXITY  moderate
END options

BEGIN nonlinear
  OUTER_DVCLOSE       0.00100000
END nonlinear

