# File generated by Flopy version 3.8.2 on 01/08/2025 at 16:23:58.
BEGIN options
  SAVE_FLOWS
END options

BEGIN packages
  OC6  B_pleasant.oc  oc
  DIS6  B_pleasant.dis  dis
  NPF6  B_pleasant.npf  npf
  IC6  B_pleasant.ic  ic
  CHD6  B_pleasant.chd  chd_0
  RCH6  B_pleasant.rcha  rcha_0
  LAK6  B_pleasant.lak  lak_0
END packages

