# File generated by Flopy version 3.8.2 on 01/08/2025 at 16:23:58.
BEGIN options
  BUDGET  FILEOUT  B_pleasant.cbc
  HEAD  FILEOUT  B_pleasant.hds
END options

BEGIN period  1
  SAVE  head  all
  SAVE  budget  all
END period  1

