# File generated by Flopy version 3.10.0.dev3 on 06/16/2025 at 06:44:21.
BEGIN options
  PRINT_OPTION  summary
  COMPLEXITY  simple
END options

BEGIN nonlinear
  OUTER_DVCLOSE  1.00000000E-05
  OUTER_MAXIMUM  1000
END nonlinear

BEGIN linear
  INNER_MAXIMUM  100
  INNER_DVCLOSE  1.00000000E-06
  LINEAR_ACCELERATION  bicgstab
END linear

