# File generated by Flopy version 3.9.1 on 02/20/2025 at 14:22:14.
BEGIN options
  auxiliary  CONCENTRATION
  PRINT_INPUT
  PRINT_FLOWS
END options

BEGIN dimensions
  MAXBOUND  1
END dimensions

BEGIN period  1
  1 16 16 1.00000000E+00 1.00000000E+03
END period  1

