# File generated by Flopy version 3.9.1 on 02/18/2025 at 16:58:41.
BEGIN options
END options

BEGIN griddata
  strt
    CONSTANT       0.00000000
END griddata

