# File generated by Flopy version 3.9.1 on 04/04/2025 at 16:12:59.
BEGIN options
  SAVE_SPECIFIC_DISCHARGE
END options

BEGIN griddata
  icelltype
    CONSTANT  0
  k
    CONSTANT     432.00000000
  k33
    CONSTANT     432.00000000
END griddata

