# File generated by Flopy version 3.10.0.dev3 on 06/13/2025 at 08:55:44.
BEGIN OPTIONS
  BUDGET  FILEOUT  freyberg.cbc
  HEAD  FILEOUT  freyberg.hds
END OPTIONS

BEGIN PERIOD  1
  SAVE  head  all
  SAVE  budget  all
  PRINT  budget  all
END PERIOD  1

