# File generated by Flopy version 3.10.0.dev3 on 06/15/2025 at 07:20:20.
BEGIN OPTIONS
  SAVE_FLOWS
END OPTIONS

BEGIN GRIDDATA
  iconvert
    CONSTANT  1
  ss
    CONSTANT  1.00000000E-05
  sy
    CONSTANT       0.20000000
END GRIDDATA

BEGIN PERIOD  1
  STEADY-STATE
END PERIOD  1

