# File generated by Flopy version 3.9.1 on 02/20/2025 at 09:28:35.
BEGIN options
END options

BEGIN griddata
  porosity
    CONSTANT       0.14000000
END griddata

