# File generated by Flopy version 3.10.0.dev3 on 06/15/2025 at 08:21:39.
BEGIN options
END options

BEGIN timing
  TDIS6  basin.tdis
END timing

BEGIN models
  gwf6  model.nam  model
END models

BEGIN exchanges
END exchanges

BEGIN solutiongroup  1
  ims6  basin.ims  model
END solutiongroup  1

