# File generated by Flopy version 3.9.1 on 06/14/2025 at 10:34:08.
BEGIN options
END options

BEGIN timing
  TDIS6  basin.tdis
END timing

BEGIN models
  gwf6  model.nam  model
END models

BEGIN exchanges
END exchanges

BEGIN solutiongroup  1
  ims6  basin.ims  model
END solutiongroup  1

