# File generated by Flopy version 3.10.0.dev3 on 06/15/2025 at 08:21:39.
BEGIN options
  SAVE_FLOWS
  NEWTON  UNDER_RELAXATION
END options

BEGIN packages
  DIS6  model.dis  dis
  IC6  model.ic  ic
  NPF6  model.npf  npf
  STO6  model.sto  sto
  RCH6  model.rcha  rcha_0
  DRN6  model.drn  river
  DRN6  model_0.drn  gwd
  OC6  model.oc  oc
END packages

