# File generated by Flopy version 3.9.1 on 06/14/2025 at 10:34:08.
BEGIN options
  auxiliary  depth
  AUXDEPTHNAME  depth
END options

BEGIN dimensions
  MAXBOUND  470
END dimensions

BEGIN period  1
  1 2 8 9.99909973E+01 1.00000000E+07 1.00000000E+00
  1 2 9 9.89864731E+01 1.00000000E+07 1.00000000E+00
  1 2 10 9.76816254E+01 1.00000000E+07 1.00000000E+00
  1 2 11 9.60261688E+01 1.00000000E+07 1.00000000E+00
  1 2 12 9.39369659E+01 1.00000000E+07 1.00000000E+00
  1 2 13 9.10606003E+01 1.00000000E+07 1.00000000E+00
  1 2 14 8.76528473E+01 1.00000000E+07 1.00000000E+00
  1 2 15 8.65312500E+01 1.00000000E+07 1.00000000E+00
  1 3 6 1.00726570E+02 1.00000000E+07 1.00000000E+00
  1 3 7 1.00334579E+02 1.00000000E+07 1.00000000E+00
  1 3 8 9.95840683E+01 1.00000000E+07 1.00000000E+00
  1 3 9 9.84963303E+01 1.00000000E+07 1.00000000E+00
  1 3 10 9.70645142E+01 1.00000000E+07 1.00000000E+00
  1 3 11 9.52476501E+01 1.00000000E+07 1.00000000E+00
  1 3 12 9.29415207E+01 1.00000000E+07 1.00000000E+00
  1 3 13 9.00152817E+01 1.00000000E+07 1.00000000E+00
  1 3 14 8.63893585E+01 1.00000000E+07 1.00000000E+00
  1 3 15 8.20052567E+01 1.00000000E+07 1.00000000E+00
  1 3 16 7.69940720E+01 1.00000000E+07 1.00000000E+00
  1 3 17 7.21189728E+01 1.00000000E+07 1.00000000E+00
  1 3 18 6.86157303E+01 1.00000000E+07 1.00000000E+00
  1 3 19 6.69975662E+01 1.00000000E+07 1.00000000E+00
  1 3 20 6.65064545E+01 1.00000000E+07 1.00000000E+00
  1 4 5 1.00493111E+02 1.00000000E+07 1.00000000E+00
  1 4 6 9.99970627E+01 1.00000000E+07 1.00000000E+00
  1 4 7 9.92476196E+01 1.00000000E+07 1.00000000E+00
  1 4 8 9.82745361E+01 1.00000000E+07 1.00000000E+00
  1 4 9 9.70521088E+01 1.00000000E+07 1.00000000E+00
  1 4 10 9.55351028E+01 1.00000000E+07 1.00000000E+00
  1 4 11 9.36490326E+01 1.00000000E+07 1.00000000E+00
  1 4 12 9.12748566E+01 1.00000000E+07 1.00000000E+00
  1 4 13 8.82553329E+01 1.00000000E+07 1.00000000E+00
  1 4 14 8.44109497E+01 1.00000000E+07 1.00000000E+00
  1 4 15 7.95688248E+01 1.00000000E+07 1.00000000E+00
  1 4 16 7.37959290E+01 1.00000000E+07 1.00000000E+00
  1 4 17 6.85755005E+01 1.00000000E+07 1.00000000E+00
  1 4 18 6.62607727E+01 1.00000000E+07 1.00000000E+00
  1 4 19 6.56071777E+01 1.00000000E+07 1.00000000E+00
  1 4 20 6.53985901E+01 1.00000000E+07 1.00000000E+00
  1 4 21 6.51419373E+01 1.00000000E+07 1.00000000E+00
  1 4 22 6.46311035E+01 1.00000000E+07 1.00000000E+00
  1 4 23 6.36839600E+01 1.00000000E+07 1.00000000E+00
  1 4 24 6.33368416E+01 1.00000000E+07 1.00000000E+00
  1 5 4 1.00522438E+02 1.00000000E+07 1.00000000E+00
  1 5 5 9.94193268E+01 1.00000000E+07 1.00000000E+00
  1 5 6 9.82438049E+01 1.00000000E+07 1.00000000E+00
  1 5 7 9.71130371E+01 1.00000000E+07 1.00000000E+00
  1 5 8 9.59330521E+01 1.00000000E+07 1.00000000E+00
  1 5 9 9.46049576E+01 1.00000000E+07 1.00000000E+00
  1 5 10 9.30584717E+01 1.00000000E+07 1.00000000E+00
  1 5 11 9.12029495E+01 1.00000000E+07 1.00000000E+00
  1 5 12 8.88927536E+01 1.00000000E+07 1.00000000E+00
  1 5 13 8.59149399E+01 1.00000000E+07 1.00000000E+00
  1 5 14 8.19792786E+01 1.00000000E+07 1.00000000E+00
  1 5 15 7.66479950E+01 1.00000000E+07 1.00000000E+00
  1 5 16 6.89659653E+01 1.00000000E+07 1.00000000E+00
  1 5 17 5.82757568E+01 1.00000000E+07 1.00000000E+00
  1 5 18 5.88231087E+01 1.00000000E+07 1.00000000E+00
  1 5 19 6.12579727E+01 1.00000000E+07 1.00000000E+00
  1 5 20 6.25206032E+01 1.00000000E+07 1.00000000E+00
  1 5 21 6.31775589E+01 1.00000000E+07 1.00000000E+00
  1 5 22 6.31263084E+01 1.00000000E+07 1.00000000E+00
  1 5 23 6.24895859E+01 1.00000000E+07 1.00000000E+00
  1 5 24 6.14514084E+01 1.00000000E+07 1.00000000E+00
  1 5 25 6.00248146E+01 1.00000000E+07 1.00000000E+00
  1 5 26 5.88073463E+01 1.00000000E+07 1.00000000E+00
  1 6 2 1.02852043E+02 1.00000000E+07 1.00000000E+00
  1 6 3 1.01478462E+02 1.00000000E+07 1.00000000E+00
  1 6 4 9.96389084E+01 1.00000000E+07 1.00000000E+00
  1 6 5 9.71156006E+01 1.00000000E+07 1.00000000E+00
  1 6 6 9.51114655E+01 1.00000000E+07 1.00000000E+00
  1 6 7 9.37269897E+01 1.00000000E+07 1.00000000E+00
  1 6 8 9.24234085E+01 1.00000000E+07 1.00000000E+00
  1 6 9 9.10365753E+01 1.00000000E+07 1.00000000E+00
  1 6 10 8.95314560E+01 1.00000000E+07 1.00000000E+00
  1 6 11 8.78337708E+01 1.00000000E+07 1.00000000E+00
  1 6 12 8.57762375E+01 1.00000000E+07 1.00000000E+00
  1 6 13 8.30816345E+01 1.00000000E+07 1.00000000E+00
  1 6 14 7.93823624E+01 1.00000000E+07 1.00000000E+00
  1 6 15 7.41700821E+01 1.00000000E+07 1.00000000E+00
  1 6 16 6.65488739E+01 1.00000000E+07 1.00000000E+00
  1 6 19 5.55338249E+01 1.00000000E+07 1.00000000E+00
  1 6 20 5.84561653E+01 1.00000000E+07 1.00000000E+00
  1 6 21 5.99243279E+01 1.00000000E+07 1.00000000E+00
  1 6 22 6.04843216E+01 1.00000000E+07 1.00000000E+00
  1 6 23 6.00908089E+01 1.00000000E+07 1.00000000E+00
  1 6 24 5.93240891E+01 1.00000000E+07 1.00000000E+00
  1 6 25 5.82388077E+01 1.00000000E+07 1.00000000E+00
  1 6 26 5.68083153E+01 1.00000000E+07 1.00000000E+00
  1 6 27 5.48764381E+01 1.00000000E+07 1.00000000E+00
  1 6 28 5.28508873E+01 1.00000000E+07 1.00000000E+00
  1 6 29 5.09350433E+01 1.00000000E+07 1.00000000E+00
  1 6 30 5.07043724E+01 1.00000000E+07 1.00000000E+00
  1 7 2 1.02971169E+02 1.00000000E+07 1.00000000E+00
  1 7 3 1.01552849E+02 1.00000000E+07 1.00000000E+00
  1 7 4 9.81781082E+01 1.00000000E+07 1.00000000E+00
  1 7 5 9.26242828E+01 1.00000000E+07 1.00000000E+00
  1 7 6 8.99708862E+01 1.00000000E+07 1.00000000E+00
  1 7 7 8.89646072E+01 1.00000000E+07 1.00000000E+00
  1 7 8 8.76186905E+01 1.00000000E+07 1.00000000E+00
  1 7 9 8.61735992E+01 1.00000000E+07 1.00000000E+00
  1 7 10 8.47664337E+01 1.00000000E+07 1.00000000E+00
  1 7 11 8.33827362E+01 1.00000000E+07 1.00000000E+00
  1 7 12 8.18522110E+01 1.00000000E+07 1.00000000E+00
  1 7 13 7.97770081E+01 1.00000000E+07 1.00000000E+00
  1 7 14 7.67247696E+01 1.00000000E+07 1.00000000E+00
  1 7 15 7.23159790E+01 1.00000000E+07 1.00000000E+00
  1 7 16 6.62541122E+01 1.00000000E+07 1.00000000E+00
  1 7 17 5.63627701E+01 1.00000000E+07 1.00000000E+00
  1 7 20 5.41257019E+01 1.00000000E+07 1.00000000E+00
  1 7 21 5.58925133E+01 1.00000000E+07 1.00000000E+00
  1 7 22 5.65956078E+01 1.00000000E+07 1.00000000E+00
  1 7 23 5.64369354E+01 1.00000000E+07 1.00000000E+00
  1 7 24 5.58894157E+01 1.00000000E+07 1.00000000E+00
  1 7 25 5.51285248E+01 1.00000000E+07 1.00000000E+00
  1 7 26 5.41241646E+01 1.00000000E+07 1.00000000E+00
  1 7 27 5.28142204E+01 1.00000000E+07 1.00000000E+00
  1 7 28 5.12487564E+01 1.00000000E+07 1.00000000E+00
  1 7 29 4.94495621E+01 1.00000000E+07 1.00000000E+00
  1 7 30 4.73180008E+01 1.00000000E+07 1.00000000E+00
  1 7 31 4.53474541E+01 1.00000000E+07 1.00000000E+00
  1 8 1 1.04792526E+02 1.00000000E+07 1.00000000E+00
  1 8 2 1.03511848E+02 1.00000000E+07 1.00000000E+00
  1 8 3 1.01535309E+02 1.00000000E+07 1.00000000E+00
  1 8 4 9.76040802E+01 1.00000000E+07 1.00000000E+00
  1 8 5 8.95143127E+01 1.00000000E+07 1.00000000E+00
  1 8 7 8.31271973E+01 1.00000000E+07 1.00000000E+00
  1 8 8 8.13734283E+01 1.00000000E+07 1.00000000E+00
  1 8 9 7.97845078E+01 1.00000000E+07 1.00000000E+00
  1 8 10 7.84320068E+01 1.00000000E+07 1.00000000E+00
  1 8 11 7.75124817E+01 1.00000000E+07 1.00000000E+00
  1 8 12 7.69895706E+01 1.00000000E+07 1.00000000E+00
  1 8 13 7.59755630E+01 1.00000000E+07 1.00000000E+00
  1 8 14 7.39104767E+01 1.00000000E+07 1.00000000E+00
  1 8 15 7.05628510E+01 1.00000000E+07 1.00000000E+00
  1 8 16 6.58967590E+01 1.00000000E+07 1.00000000E+00
  1 8 17 5.90948601E+01 1.00000000E+07 1.00000000E+00
  1 8 18 5.13807220E+01 1.00000000E+07 1.00000000E+00
  1 8 20 4.99994812E+01 1.00000000E+07 1.00000000E+00
  1 8 21 5.11001282E+01 1.00000000E+07 1.00000000E+00
  1 8 22 5.15924225E+01 1.00000000E+07 1.00000000E+00
  1 8 23 5.13463593E+01 1.00000000E+07 1.00000000E+00
  1 8 24 5.09401741E+01 1.00000000E+07 1.00000000E+00
  1 8 25 5.05496902E+01 1.00000000E+07 1.00000000E+00
  1 8 26 5.00808220E+01 1.00000000E+07 1.00000000E+00
  1 8 27 4.93262482E+01 1.00000000E+07 1.00000000E+00
  1 8 28 4.81636848E+01 1.00000000E+07 1.00000000E+00
  1 8 29 4.65556488E+01 1.00000000E+07 1.00000000E+00
  1 8 30 4.44727554E+01 1.00000000E+07 1.00000000E+00
  1 8 31 4.18366318E+01 1.00000000E+07 1.00000000E+00
  1 8 32 3.86796951E+01 1.00000000E+07 1.00000000E+00
  1 8 33 3.79813690E+01 1.00000000E+07 1.00000000E+00
  1 9 1 1.05032288E+02 1.00000000E+07 1.00000000E+00
  1 9 2 1.03997726E+02 1.00000000E+07 1.00000000E+00
  1 9 3 1.01690712E+02 1.00000000E+07 1.00000000E+00
  1 9 4 9.77479782E+01 1.00000000E+07 1.00000000E+00
  1 9 5 9.14406052E+01 1.00000000E+07 1.00000000E+00
  1 9 13 7.13684235E+01 1.00000000E+07 1.00000000E+00
  1 9 14 7.08885422E+01 1.00000000E+07 1.00000000E+00
  1 9 15 6.85948486E+01 1.00000000E+07 1.00000000E+00
  1 9 16 6.50582199E+01 1.00000000E+07 1.00000000E+00
  1 9 17 6.02180824E+01 1.00000000E+07 1.00000000E+00
  1 9 18 5.36612396E+01 1.00000000E+07 1.00000000E+00
  1 9 22 4.50907784E+01 1.00000000E+07 1.00000000E+00
  1 9 23 4.44795036E+01 1.00000000E+07 1.00000000E+00
  1 9 24 4.40515823E+01 1.00000000E+07 1.00000000E+00
  1 9 25 4.40232773E+01 1.00000000E+07 1.00000000E+00
  1 9 26 4.42630348E+01 1.00000000E+07 1.00000000E+00
  1 9 27 4.44759445E+01 1.00000000E+07 1.00000000E+00
  1 9 28 4.37400551E+01 1.00000000E+07 1.00000000E+00
  1 9 29 4.23246994E+01 1.00000000E+07 1.00000000E+00
  1 9 30 4.03245544E+01 1.00000000E+07 1.00000000E+00
  1 9 31 3.78223572E+01 1.00000000E+07 1.00000000E+00
  1 9 32 3.48443336E+01 1.00000000E+07 1.00000000E+00
  1 9 33 3.13207054E+01 1.00000000E+07 1.00000000E+00
  1 9 34 2.87921181E+01 1.00000000E+07 1.00000000E+00
  1 10 1 1.05650620E+02 1.00000000E+07 1.00000000E+00
  1 10 2 1.04458153E+02 1.00000000E+07 1.00000000E+00
  1 10 3 1.02158379E+02 1.00000000E+07 1.00000000E+00
  1 10 4 9.86644211E+01 1.00000000E+07 1.00000000E+00
  1 10 5 9.40742874E+01 1.00000000E+07 1.00000000E+00
  1 10 6 8.91506195E+01 1.00000000E+07 1.00000000E+00
  1 10 7 8.48581238E+01 1.00000000E+07 1.00000000E+00
  1 10 8 8.11987610E+01 1.00000000E+07 1.00000000E+00
  1 10 9 7.76238480E+01 1.00000000E+07 1.00000000E+00
  1 10 10 7.40671692E+01 1.00000000E+07 1.00000000E+00
  1 10 11 7.03836746E+01 1.00000000E+07 1.00000000E+00
  1 10 14 6.77634506E+01 1.00000000E+07 1.00000000E+00
  1 10 15 6.63262177E+01 1.00000000E+07 1.00000000E+00
  1 10 16 6.36447449E+01 1.00000000E+07 1.00000000E+00
  1 10 17 6.00226212E+01 1.00000000E+07 1.00000000E+00
  1 10 18 5.53139458E+01 1.00000000E+07 1.00000000E+00
  1 10 19 4.98747177E+01 1.00000000E+07 1.00000000E+00
  1 10 20 4.54689713E+01 1.00000000E+07 1.00000000E+00
  1 10 26 3.59725342E+01 1.00000000E+07 1.00000000E+00
  1 10 27 3.77709160E+01 1.00000000E+07 1.00000000E+00
  1 10 28 3.81005363E+01 1.00000000E+07 1.00000000E+00
  1 10 29 3.67424393E+01 1.00000000E+07 1.00000000E+00
  1 10 30 3.46960526E+01 1.00000000E+07 1.00000000E+00
  1 10 31 3.22500381E+01 1.00000000E+07 1.00000000E+00
  1 10 32 2.95370674E+01 1.00000000E+07 1.00000000E+00
  1 10 33 2.65834141E+01 1.00000000E+07 1.00000000E+00
  1 10 34 2.32641621E+01 1.00000000E+07 1.00000000E+00
  1 10 35 1.96195526E+01 1.00000000E+07 1.00000000E+00
  1 11 1 1.05961098E+02 1.00000000E+07 1.00000000E+00
  1 11 2 1.04776970E+02 1.00000000E+07 1.00000000E+00
  1 11 3 1.02596184E+02 1.00000000E+07 1.00000000E+00
  1 11 4 9.94940491E+01 1.00000000E+07 1.00000000E+00
  1 11 5 9.56717300E+01 1.00000000E+07 1.00000000E+00
  1 11 6 9.15032196E+01 1.00000000E+07 1.00000000E+00
  1 11 7 8.74020386E+01 1.00000000E+07 1.00000000E+00
  1 11 8 8.35064697E+01 1.00000000E+07 1.00000000E+00
  1 11 9 7.97365189E+01 1.00000000E+07 1.00000000E+00
  1 11 10 7.59896011E+01 1.00000000E+07 1.00000000E+00
  1 11 11 7.21089401E+01 1.00000000E+07 1.00000000E+00
  1 11 12 6.79046097E+01 1.00000000E+07 1.00000000E+00
  1 11 15 6.37363968E+01 1.00000000E+07 1.00000000E+00
  1 11 16 6.15720901E+01 1.00000000E+07 1.00000000E+00
  1 11 17 5.85492783E+01 1.00000000E+07 1.00000000E+00
  1 11 18 5.49760666E+01 1.00000000E+07 1.00000000E+00
  1 11 19 5.12561607E+01 1.00000000E+07 1.00000000E+00
  1 11 20 4.74807777E+01 1.00000000E+07 1.00000000E+00
  1 11 21 4.37490692E+01 1.00000000E+07 1.00000000E+00
  1 11 22 4.03623810E+01 1.00000000E+07 1.00000000E+00
  1 11 23 3.71686363E+01 1.00000000E+07 1.00000000E+00
  1 11 24 3.41413460E+01 1.00000000E+07 1.00000000E+00
  1 11 27 3.03004093E+01 1.00000000E+07 1.00000000E+00
  1 11 28 3.14533863E+01 1.00000000E+07 1.00000000E+00
  1 11 29 2.97115879E+01 1.00000000E+07 1.00000000E+00
  1 11 30 2.72452793E+01 1.00000000E+07 1.00000000E+00
  1 11 31 2.46894455E+01 1.00000000E+07 1.00000000E+00
  1 11 32 2.21551628E+01 1.00000000E+07 1.00000000E+00
  1 11 33 1.99355049E+01 1.00000000E+07 1.00000000E+00
  1 11 34 1.78815155E+01 1.00000000E+07 1.00000000E+00
  1 11 35 1.58209991E+01 1.00000000E+07 1.00000000E+00
  1 11 36 1.44320211E+01 1.00000000E+07 1.00000000E+00
  1 11 37 1.53056841E+01 1.00000000E+07 1.00000000E+00
  1 12 1 1.05928131E+02 1.00000000E+07 1.00000000E+00
  1 12 2 1.04676430E+02 1.00000000E+07 1.00000000E+00
  1 12 3 1.02532387E+02 1.00000000E+07 1.00000000E+00
  1 12 4 9.95986404E+01 1.00000000E+07 1.00000000E+00
  1 12 5 9.60337677E+01 1.00000000E+07 1.00000000E+00
  1 12 6 9.20463486E+01 1.00000000E+07 1.00000000E+00
  1 12 7 8.78834381E+01 1.00000000E+07 1.00000000E+00
  1 12 8 8.37343216E+01 1.00000000E+07 1.00000000E+00
  1 12 9 7.97131500E+01 1.00000000E+07 1.00000000E+00
  1 12 10 7.58470993E+01 1.00000000E+07 1.00000000E+00
  1 12 11 7.21163559E+01 1.00000000E+07 1.00000000E+00
  1 12 12 6.85180283E+01 1.00000000E+07 1.00000000E+00
  1 12 13 6.47120132E+01 1.00000000E+07 1.00000000E+00
  1 12 15 6.07389565E+01 1.00000000E+07 1.00000000E+00
  1 12 16 5.87276802E+01 1.00000000E+07 1.00000000E+00
  1 12 17 5.59880409E+01 1.00000000E+07 1.00000000E+00
  1 12 18 5.26084366E+01 1.00000000E+07 1.00000000E+00
  1 12 19 4.92160835E+01 1.00000000E+07 1.00000000E+00
  1 12 20 4.61770401E+01 1.00000000E+07 1.00000000E+00
  1 12 21 4.31836586E+01 1.00000000E+07 1.00000000E+00
  1 12 22 3.99754333E+01 1.00000000E+07 1.00000000E+00
  1 12 23 3.69604950E+01 1.00000000E+07 1.00000000E+00
  1 12 29 2.11644993E+01 1.00000000E+07 1.00000000E+00
  1 12 34 1.00971069E+01 1.00000000E+07 1.00000000E+00
  1 12 35 9.42963219E+00 1.00000000E+07 1.00000000E+00
  1 12 36 8.77938557E+00 1.00000000E+07 1.00000000E+00
  1 12 37 1.15537338E+01 1.00000000E+07 1.00000000E+00
  1 13 1 1.05503532E+02 1.00000000E+07 1.00000000E+00
  1 13 2 1.04143021E+02 1.00000000E+07 1.00000000E+00
  1 13 3 1.01882446E+02 1.00000000E+07 1.00000000E+00
  1 13 4 9.87777252E+01 1.00000000E+07 1.00000000E+00
  1 13 5 9.49269180E+01 1.00000000E+07 1.00000000E+00
  1 13 6 9.06003036E+01 1.00000000E+07 1.00000000E+00
  1 13 7 8.61039124E+01 1.00000000E+07 1.00000000E+00
  1 13 8 8.16335068E+01 1.00000000E+07 1.00000000E+00
  1 13 9 7.74423904E+01 1.00000000E+07 1.00000000E+00
  1 13 10 7.35245972E+01 1.00000000E+07 1.00000000E+00
  1 13 31 1.69227848E+01 1.00000000E+07 1.00000000E+00
  1 13 32 1.38338470E+01 1.00000000E+07 1.00000000E+00
  1 14 1 1.04770561E+02 1.00000000E+07 1.00000000E+00
  1 14 2 1.03262306E+02 1.00000000E+07 1.00000000E+00
  1 14 3 1.00837242E+02 1.00000000E+07 1.00000000E+00
  1 14 4 9.74389496E+01 1.00000000E+07 1.00000000E+00
  1 14 5 9.29287262E+01 1.00000000E+07 1.00000000E+00
  1 14 6 8.78363876E+01 1.00000000E+07 1.00000000E+00
  1 14 7 8.29034424E+01 1.00000000E+07 1.00000000E+00
  1 14 12 6.85194397E+01 1.00000000E+07 1.00000000E+00
  1 14 13 6.60013275E+01 1.00000000E+07 1.00000000E+00
  1 14 14 6.33835907E+01 1.00000000E+07 1.00000000E+00
  1 14 15 6.03503342E+01 1.00000000E+07 1.00000000E+00
  1 14 16 5.71094742E+01 1.00000000E+07 1.00000000E+00
  1 14 17 5.41300888E+01 1.00000000E+07 1.00000000E+00
  1 14 18 5.13327217E+01 1.00000000E+07 1.00000000E+00
  1 14 19 4.80981522E+01 1.00000000E+07 1.00000000E+00
  1 14 22 4.64277611E+01 1.00000000E+07 1.00000000E+00
  1 14 23 4.59255867E+01 1.00000000E+07 1.00000000E+00
  1 14 24 4.44784927E+01 1.00000000E+07 1.00000000E+00
  1 14 25 4.22367287E+01 1.00000000E+07 1.00000000E+00
  1 14 26 3.98661041E+01 1.00000000E+07 1.00000000E+00
  1 14 27 3.74524307E+01 1.00000000E+07 1.00000000E+00
  1 14 28 3.49919167E+01 1.00000000E+07 1.00000000E+00
  1 14 29 3.26145744E+01 1.00000000E+07 1.00000000E+00
  1 14 30 3.03083382E+01 1.00000000E+07 1.00000000E+00
  1 14 31 2.74376945E+01 1.00000000E+07 1.00000000E+00
  1 14 32 2.38564377E+01 1.00000000E+07 1.00000000E+00
  1 14 33 1.94377689E+01 1.00000000E+07 1.00000000E+00
  1 14 34 1.44529543E+01 1.00000000E+07 1.00000000E+00
  1 14 35 9.46566200E+00 1.00000000E+07 1.00000000E+00
  1 14 36 7.23176527E+00 1.00000000E+07 1.00000000E+00
  1 14 37 1.23468513E+01 1.00000000E+07 1.00000000E+00
  1 15 1 1.04580399E+02 1.00000000E+07 1.00000000E+00
  1 15 2 1.01944260E+02 1.00000000E+07 1.00000000E+00
  1 15 3 9.94981537E+01 1.00000000E+07 1.00000000E+00
  1 15 4 9.59399109E+01 1.00000000E+07 1.00000000E+00
  1 15 5 9.04173965E+01 1.00000000E+07 1.00000000E+00
  1 15 9 7.76685257E+01 1.00000000E+07 1.00000000E+00
  1 15 10 7.58374481E+01 1.00000000E+07 1.00000000E+00
  1 15 11 7.35972900E+01 1.00000000E+07 1.00000000E+00
  1 15 12 7.09514008E+01 1.00000000E+07 1.00000000E+00
  1 15 13 6.79693909E+01 1.00000000E+07 1.00000000E+00
  1 15 14 6.47763290E+01 1.00000000E+07 1.00000000E+00
  1 15 15 6.11624908E+01 1.00000000E+07 1.00000000E+00
  1 15 16 5.75093918E+01 1.00000000E+07 1.00000000E+00
  1 15 17 5.39800606E+01 1.00000000E+07 1.00000000E+00
  1 15 21 5.04656258E+01 1.00000000E+07 1.00000000E+00
  1 15 22 5.28250732E+01 1.00000000E+07 1.00000000E+00
  1 15 23 5.32806053E+01 1.00000000E+07 1.00000000E+00
  1 15 24 5.23155632E+01 1.00000000E+07 1.00000000E+00
  1 15 25 5.07687988E+01 1.00000000E+07 1.00000000E+00
  1 15 26 4.88627396E+01 1.00000000E+07 1.00000000E+00
  1 15 27 4.67224426E+01 1.00000000E+07 1.00000000E+00
  1 15 28 4.43893776E+01 1.00000000E+07 1.00000000E+00
  1 15 29 4.18743515E+01 1.00000000E+07 1.00000000E+00
  1 15 30 3.90961456E+01 1.00000000E+07 1.00000000E+00
  1 15 31 3.58804398E+01 1.00000000E+07 1.00000000E+00
  1 15 32 3.21487999E+01 1.00000000E+07 1.00000000E+00
  1 15 33 2.79785461E+01 1.00000000E+07 1.00000000E+00
  1 15 34 2.36650486E+01 1.00000000E+07 1.00000000E+00
  1 15 35 1.98815193E+01 1.00000000E+07 1.00000000E+00
  1 15 36 1.79869061E+01 1.00000000E+07 1.00000000E+00
  1 15 37 2.05110779E+01 1.00000000E+07 1.00000000E+00
  1 16 3 9.81597443E+01 1.00000000E+07 1.00000000E+00
  1 16 4 9.46274719E+01 1.00000000E+07 1.00000000E+00
  1 16 5 9.01613007E+01 1.00000000E+07 1.00000000E+00
  1 16 7 8.34123001E+01 1.00000000E+07 1.00000000E+00
  1 16 8 8.20440521E+01 1.00000000E+07 1.00000000E+00
  1 16 9 8.03341980E+01 1.00000000E+07 1.00000000E+00
  1 16 10 7.81669235E+01 1.00000000E+07 1.00000000E+00
  1 16 11 7.54797287E+01 1.00000000E+07 1.00000000E+00
  1 16 12 7.22369690E+01 1.00000000E+07 1.00000000E+00
  1 16 13 6.80239182E+01 1.00000000E+07 1.00000000E+00
  1 16 14 6.36096802E+01 1.00000000E+07 1.00000000E+00
  1 16 15 5.93411713E+01 1.00000000E+07 1.00000000E+00
  1 16 19 5.32266808E+01 1.00000000E+07 1.00000000E+00
  1 16 20 5.53886986E+01 1.00000000E+07 1.00000000E+00
  1 16 21 5.74277992E+01 1.00000000E+07 1.00000000E+00
  1 16 22 5.89266052E+01 1.00000000E+07 1.00000000E+00
  1 16 23 5.94702415E+01 1.00000000E+07 1.00000000E+00
  1 16 24 5.87888718E+01 1.00000000E+07 1.00000000E+00
  1 16 25 5.75812874E+01 1.00000000E+07 1.00000000E+00
  1 16 26 5.59619942E+01 1.00000000E+07 1.00000000E+00
  1 16 27 5.40026321E+01 1.00000000E+07 1.00000000E+00
  1 16 28 5.17244377E+01 1.00000000E+07 1.00000000E+00
  1 16 29 4.91035461E+01 1.00000000E+07 1.00000000E+00
  1 16 30 4.60685234E+01 1.00000000E+07 1.00000000E+00
  1 16 31 4.25367012E+01 1.00000000E+07 1.00000000E+00
  1 16 32 3.85242615E+01 1.00000000E+07 1.00000000E+00
  1 16 33 3.42067719E+01 1.00000000E+07 1.00000000E+00
  1 16 34 2.98641682E+01 1.00000000E+07 1.00000000E+00
  1 16 35 2.57623692E+01 1.00000000E+07 1.00000000E+00
  1 16 36 2.28673420E+01 1.00000000E+07 1.00000000E+00
  1 17 4 9.43688812E+01 1.00000000E+07 1.00000000E+00
  1 17 5 9.05413208E+01 1.00000000E+07 1.00000000E+00
  1 17 6 8.77451248E+01 1.00000000E+07 1.00000000E+00
  1 17 7 8.57564087E+01 1.00000000E+07 1.00000000E+00
  1 17 8 8.39998856E+01 1.00000000E+07 1.00000000E+00
  1 17 9 8.20170746E+01 1.00000000E+07 1.00000000E+00
  1 17 10 7.95718384E+01 1.00000000E+07 1.00000000E+00
  1 17 11 7.64669418E+01 1.00000000E+07 1.00000000E+00
  1 17 12 7.22276764E+01 1.00000000E+07 1.00000000E+00
  1 17 13 6.54595032E+01 1.00000000E+07 1.00000000E+00
  1 17 17 5.89796333E+01 1.00000000E+07 1.00000000E+00
  1 17 18 5.93695755E+01 1.00000000E+07 1.00000000E+00
  1 17 19 6.05342941E+01 1.00000000E+07 1.00000000E+00
  1 17 20 6.19331627E+01 1.00000000E+07 1.00000000E+00
  1 17 21 6.32391357E+01 1.00000000E+07 1.00000000E+00
  1 17 22 6.41968460E+01 1.00000000E+07 1.00000000E+00
  1 17 23 6.45609360E+01 1.00000000E+07 1.00000000E+00
  1 17 24 6.40047302E+01 1.00000000E+07 1.00000000E+00
  1 17 25 6.29761391E+01 1.00000000E+07 1.00000000E+00
  1 17 26 6.15278053E+01 1.00000000E+07 1.00000000E+00
  1 17 27 5.96864777E+01 1.00000000E+07 1.00000000E+00
  1 17 28 5.74436684E+01 1.00000000E+07 1.00000000E+00
  1 17 29 5.47530441E+01 1.00000000E+07 1.00000000E+00
  1 17 30 5.15241203E+01 1.00000000E+07 1.00000000E+00
  1 17 31 4.76284294E+01 1.00000000E+07 1.00000000E+00
  1 17 32 4.30803986E+01 1.00000000E+07 1.00000000E+00
  1 17 33 3.82998962E+01 1.00000000E+07 1.00000000E+00
  1 17 34 3.34509392E+01 1.00000000E+07 1.00000000E+00
  1 17 35 3.28168144E+01 1.00000000E+07 1.00000000E+00
  1 18 6 8.81976776E+01 1.00000000E+07 1.00000000E+00
  1 18 7 8.65242767E+01 1.00000000E+07 1.00000000E+00
  1 18 8 8.48377914E+01 1.00000000E+07 1.00000000E+00
  1 18 9 8.26724014E+01 1.00000000E+07 1.00000000E+00
  1 18 10 8.01589508E+01 1.00000000E+07 1.00000000E+00
  1 18 11 7.68907776E+01 1.00000000E+07 1.00000000E+00
  1 18 12 7.22440796E+01 1.00000000E+07 1.00000000E+00
  1 18 15 6.36704788E+01 1.00000000E+07 1.00000000E+00
  1 18 16 6.40045700E+01 1.00000000E+07 1.00000000E+00
  1 18 17 6.43901443E+01 1.00000000E+07 1.00000000E+00
  1 18 18 6.49736633E+01 1.00000000E+07 1.00000000E+00
  1 18 19 6.58311234E+01 1.00000000E+07 1.00000000E+00
  1 18 20 6.68168335E+01 1.00000000E+07 1.00000000E+00
  1 18 21 6.77232513E+01 1.00000000E+07 1.00000000E+00
  1 18 22 6.83729935E+01 1.00000000E+07 1.00000000E+00
  1 18 23 6.85513992E+01 1.00000000E+07 1.00000000E+00
  1 18 24 6.80432816E+01 1.00000000E+07 1.00000000E+00
  1 18 25 6.71144257E+01 1.00000000E+07 1.00000000E+00
  1 18 26 6.57788391E+01 1.00000000E+07 1.00000000E+00
  1 18 27 6.40295486E+01 1.00000000E+07 1.00000000E+00
  1 18 28 6.18290329E+01 1.00000000E+07 1.00000000E+00
  1 18 29 5.91137047E+01 1.00000000E+07 1.00000000E+00
  1 18 30 5.57826538E+01 1.00000000E+07 1.00000000E+00
  1 18 31 5.15889549E+01 1.00000000E+07 1.00000000E+00
  1 18 32 4.85625229E+01 1.00000000E+07 1.00000000E+00
  1 19 9 8.24285355E+01 1.00000000E+07 1.00000000E+00
  1 19 10 7.99972305E+01 1.00000000E+07 1.00000000E+00
  1 19 11 7.64273224E+01 1.00000000E+07 1.00000000E+00
  1 19 12 7.31844025E+01 1.00000000E+07 1.00000000E+00
  1 19 13 6.95112915E+01 1.00000000E+07 1.00000000E+00
  1 19 14 6.79397964E+01 1.00000000E+07 1.00000000E+00
  1 19 15 6.76505814E+01 1.00000000E+07 1.00000000E+00
  1 19 16 6.76713104E+01 1.00000000E+07 1.00000000E+00
  1 19 17 6.80040436E+01 1.00000000E+07 1.00000000E+00
  1 19 18 6.86064758E+01 1.00000000E+07 1.00000000E+00
  1 19 19 6.93755188E+01 1.00000000E+07 1.00000000E+00
  1 19 20 7.01872177E+01 1.00000000E+07 1.00000000E+00
  1 19 21 7.08995361E+01 1.00000000E+07 1.00000000E+00
  1 19 22 7.13851318E+01 1.00000000E+07 1.00000000E+00
  1 19 23 7.14355316E+01 1.00000000E+07 1.00000000E+00
  1 19 24 7.09478836E+01 1.00000000E+07 1.00000000E+00
  1 19 25 7.00851212E+01 1.00000000E+07 1.00000000E+00
  1 19 26 6.88443146E+01 1.00000000E+07 1.00000000E+00
  1 19 27 6.71961670E+01 1.00000000E+07 1.00000000E+00
  1 19 28 6.50644760E+01 1.00000000E+07 1.00000000E+00
  1 19 29 6.23696632E+01 1.00000000E+07 1.00000000E+00
  1 19 30 5.88852654E+01 1.00000000E+07 1.00000000E+00
  1 19 31 5.83757019E+01 1.00000000E+07 1.00000000E+00
  1 20 13 7.07592697E+01 1.00000000E+07 1.00000000E+00
  1 20 14 6.95713654E+01 1.00000000E+07 1.00000000E+00
  1 20 15 6.93403168E+01 1.00000000E+07 1.00000000E+00
  1 20 16 6.93845825E+01 1.00000000E+07 1.00000000E+00
  1 20 17 6.98302307E+01 1.00000000E+07 1.00000000E+00
  1 20 18 7.05447922E+01 1.00000000E+07 1.00000000E+00
  1 20 19 7.13542786E+01 1.00000000E+07 1.00000000E+00
  1 20 20 7.21498108E+01 1.00000000E+07 1.00000000E+00
  1 20 21 7.28138199E+01 1.00000000E+07 1.00000000E+00
  1 20 22 7.32307281E+01 1.00000000E+07 1.00000000E+00
  1 20 23 7.32114944E+01 1.00000000E+07 1.00000000E+00
  1 20 24 7.27365723E+01 1.00000000E+07 1.00000000E+00
  1 20 25 7.19257507E+01 1.00000000E+07 1.00000000E+00
  1 20 26 7.07864380E+01 1.00000000E+07 1.00000000E+00
  1 20 27 6.92890091E+01 1.00000000E+07 1.00000000E+00
  1 20 28 6.73220139E+01 1.00000000E+07 1.00000000E+00
  1 20 29 6.58084259E+01 1.00000000E+07 1.00000000E+00
  1 21 20 7.35076904E+01 1.00000000E+07 1.00000000E+00
  1 21 21 7.35734711E+01 1.00000000E+07 1.00000000E+00
  1 21 22 7.39240875E+01 1.00000000E+07 1.00000000E+00
  1 21 23 7.38780441E+01 1.00000000E+07 1.00000000E+00
  1 21 24 7.34092255E+01 1.00000000E+07 1.00000000E+00
  1 21 25 7.26264343E+01 1.00000000E+07 1.00000000E+00
  1 21 26 7.15864868E+01 1.00000000E+07 1.00000000E+00
  1 21 27 7.10102692E+01 1.00000000E+07 1.00000000E+00
END period  1

