# File generated by Flopy version 3.10.0.dev3 on 06/15/2025 at 08:21:39.
BEGIN options
  XORIGIN       0.00000000
  YORIGIN       0.00000000
END options

BEGIN dimensions
  NLAY  2
  NROW  21
  NCOL  37
END dimensions

BEGIN griddata
  delr
    CONSTANT    5000.00000000
  delc
    CONSTANT    5000.00000000
  top
    INTERNAL  FACTOR  1.0
       101.09039307     101.13024139     101.25666046     101.25666046     101.28726959     101.23593903     101.02922058     100.70333862      99.61818695      97.70894623      97.26135254      95.48061371      94.44600677      90.18769073      87.03125000      83.31587219      80.09763336      70.97997284      67.95307159      67.08169556      67.00645447      66.26735687      65.70725250      65.15328217      63.83684158      62.15637970      60.18175125      60.18175125      58.35778427      52.93722153      51.20437241      51.20437241      50.16458130      47.71946335      47.71946335      44.04087067      40.99962997
       101.72914124     101.09039307     101.13024139     101.25666046     101.28726959     101.23593903     101.02922058     100.49099731      99.48647308      98.18162537      96.52616882      94.43696594      91.56060028      88.15284729      87.03125000      83.31587219      75.64496613      70.97997284      67.95307159      67.08169556      66.40056610      66.26735687      65.70725250      65.15328217      63.83684158      62.15637970      60.18175125      59.30734634      52.93722153      52.93722153      51.20437241      51.20437241      48.97345734      47.71946335      47.71946335      40.99962997      40.99962997
       102.49778748     101.72914124     101.09039307     101.13024139     101.25666046     101.22657013     100.83457947     100.08406830      98.99633026      97.56451416      95.74765015      93.44152069      90.51528168      86.88935852      82.50525665      77.49407196      72.61897278      69.11573029      67.49756622      67.00645447      66.40056610      65.78166199      65.15328217      63.83684158      63.17837143      61.36823273      60.18175125      58.35778427      52.93722153      52.93722153      51.20437241      50.16458130      47.71946335      47.71946335      44.04087067      40.99962997      36.22415924
       102.76670074     102.49778748     101.72914124     101.09039307     100.99311066     100.49706268      99.74761963      98.77453613      97.55210876      96.03510284      94.14903259      91.77485657      88.75533295      84.91094971      80.06882477      74.29592896      69.07550049      66.76077271      66.10717773      65.89859009      65.64193726      65.13110352      64.18395996      63.83684158      62.15637970      60.18175125      59.30734634      55.99590683      52.93722153      51.20437241      51.20437241      48.97345734      47.71946335      44.04087067      40.99962997      36.22415924      36.22415924
       103.35204315     102.76670074     101.97846222     101.02243805      99.91932678      98.74380493      97.61303711      96.43305206      95.10495758      93.55847168      91.70294952      89.39275360      86.41493988      82.47927856      77.14799500      69.46596527      58.77575684      59.32310867      61.75797272      63.02060318      63.67755890      63.62630844      62.98958588      61.95140839      60.52481461      59.30734634      58.35778427      55.99590683      52.93722153      51.20437241      50.16458130      47.71946335      44.04087067      40.99962997      40.99962997      36.22415924      29.29211807
       103.61625671     103.35204315     101.97846222     100.13890839      97.61560059      95.61146545      94.22698975      92.92340851      91.53657532      90.03145599      88.33377075      86.27623749      83.58163452      79.88236237      74.67008209      67.04887390      53.88888931      52.77777863      56.03382492      58.95616531      60.42432785      60.98432159      60.59080887      59.82408905      58.73880768      57.30831528      55.37643814      53.35088730      51.43504333      51.20437241      48.97345734      47.71946335      44.04087067      40.99962997      36.22415924      29.29211807      29.29211807
       104.34490204     103.47116852     102.05284882      98.67810822      93.12428284      90.47088623      89.46460724      88.11869049      86.67359924      85.26643372      83.88273621      82.35221100      80.27700806      77.22476959      72.81597900      66.75411224      56.86277008      51.11111069      50.55555725      54.62570190      56.39251328      57.09560776      56.93693542      56.38941574      55.62852478      54.62416458      53.31422043      51.74875641      49.94956207      47.81800079      45.84745407      44.04087067      40.99962997      36.22415924      34.95113373      29.29211807      23.74958992
       105.29252625     104.01184845     102.03530884      98.10408020      90.01431274      84.44444275      83.62719727      81.87342834      80.28450775      78.93200684      78.01248169      77.48957062      76.47556305      74.41047668      71.06285095      66.39675903      59.59486008      51.88072205      49.44444275      50.49948120      51.60012817      52.09242249      51.84635925      51.44017410      51.04969025      50.58082199      49.82624817      48.66368484      47.05564880      44.97275543      42.33663177      39.17969513      38.48136902      34.95113373      29.29211807      23.74958992      20.11955261
       105.53228760     104.49772644     102.19071198      98.24797821      91.94060516      84.44444275      81.66666412      78.88888550      76.11111450      73.33333588      70.55555725      70.00000000      71.86842346      71.38854218      69.09484863      65.55821991      60.71808243      54.16123962      48.33333206      45.55555725      45.00000000      45.59077835      44.97950363      44.55158234      44.52327728      44.76303482      44.97594452      44.24005508      42.82469940      40.82455444      38.32235718      35.34433365      31.82070541      29.29211807      26.27565956      20.11955261      17.02588463
       106.15061951     104.95815277     102.65837860      99.16442108      94.57428741      89.65061951      85.35812378      81.69876099      78.12384796      74.56716919      70.88367462      67.77777863      66.66666412      68.26345062      66.82621765      64.14474487      60.52262115      55.81394577      50.37471771      45.96897125      42.77777863      40.00000000      37.22222137      34.44444275      33.88888931      36.47253418      38.27091599      38.60053635      37.24243927      35.19605255      32.75003815      30.03706741      27.08341408      23.76416206      20.11955261      20.11955261      15.80568409
       106.46109772     105.27696991     103.09618378      99.99404907      96.17173004      92.00321960      87.90203857      84.00646973      80.23651886      76.48960114      72.60894012      68.40460968      65.00000000      64.44444275      64.23639679      62.07209015      59.04927826      55.47606659      51.75616074      47.98077774      44.24906921      40.86238098      37.66863632      34.64134598      31.66666794      29.44444466      30.80040932      31.95338631      30.21158791      27.74527931      25.18944550      22.65516281      20.43550491      18.38151550      16.32099915      14.93202114      15.80568409
       106.42813110     105.17642975     103.03238678     100.09864044      96.53376770      92.54634857      88.38343811      84.23432159      80.21315002      76.34709930      72.61635590      69.01802826      65.21201324      62.22222137      61.23895645      59.22768021      56.48804092      53.10843658      49.71608353      46.67704010      43.68365860      40.47543335      37.46049500      34.44444275      31.86635780      28.88888931      26.11111069      24.78235817      21.66449928      17.77777863      15.00000000      12.22222233      10.55555630      10.59710693       9.92963219       9.27938557      12.05373383
       106.00353241     104.64302063     102.38244629      99.27772522      95.42691803      91.10030365      86.60391235      82.13350677      77.94239044      74.02459717      70.55555725      67.77777863      65.00000000      62.22222137      59.44444275      56.66666794      53.88888931      51.11111069      48.33333206      45.55555725      42.77777863      40.00000000      37.22222137      36.15496063      31.66666794      28.88888931      26.11111069      23.33333206      20.55555534      20.00000000      17.42278481      14.33384705       9.44444466       6.66666651       3.88888884       1.11111104       3.64044738
       105.27056122     103.76230621     101.33724213      97.93894958      93.42872620      88.33638763      83.40344238      78.88888550      76.11111450      73.33333588      71.18558502      69.01943970      66.50132751      63.88359070      60.85033417      57.60947418      54.63008881      51.83272171      48.59815216      45.55555725      45.00000000      46.92776108      46.42558670      44.97849274      42.73672867      40.36610413      37.95243073      35.49191666      33.11457443      30.80833817      27.93769455      24.35643768      19.93776894      14.95295429       9.96566200       7.73176527      12.84685135
       105.08039856     102.44425964      99.99815369      96.43991089      90.91739655      84.44444275      81.66666412      79.63040924      78.16852570      76.33744812      74.09729004      71.45140076      68.46939087      65.27632904      61.66249084      58.00939178      54.48006058      51.11111069      48.33333206      47.22222137      50.96562576      53.32507324      53.78060532      52.81556320      51.26879883      49.36273956      47.22244263      44.88937759      42.37435150      39.59614563      36.38043976      32.64879990      28.47854614      24.16504860      20.38151932      18.48690605      21.01107788
       103.59868622     101.67651367      98.65974426      95.12747192      90.66130066      85.33496857      83.91230011      82.54405212      80.83419800      78.66692352      75.97972870      72.73696899      68.52391815      64.10968018      59.84117126      56.66666794      53.88888931      52.22222137      53.72668076      55.88869858      57.92779922      59.42660522      59.97024155      59.28887177      58.08128738      56.46199417      54.50263214      52.22443771      49.60354614      46.56852341      43.03670120      39.02426147      34.70677185      30.36416817      26.26236916      23.36734200      22.38552666
       103.59868622     100.96144104      98.65974426      94.86888123      91.04132080      88.24512482      86.25640869      84.49988556      82.51707458      80.07183838      76.96694183      72.72767639      65.95950317      62.22222137      59.44444275      58.88888931      59.47963333      59.86957550      61.03429413      62.43316269      63.73913574      64.69684601      65.06093597      64.50473022      63.47613907      62.02780533      60.18647766      57.94366837      55.25304413      52.02412033      48.12842941      43.58039856      38.79989624      33.95093918      33.31681442      26.97802544      23.36734200
       100.96144104      98.65974426      97.10437775      92.69839478      91.39332581      88.69767761      87.02427673      85.33779144      83.17240143      80.65895081      77.39077759      72.74407959      65.00000000      63.88888931      64.17047882      64.50457001      64.89014435      65.47366333      66.33112335      67.31683350      68.22325134      68.87299347      69.05139923      68.54328156      67.61442566      66.27883911      64.52954865      62.32903290      59.61370468      56.28265381      52.08895493      49.06252289      45.19978333      39.18238449      35.65993881      30.98413849      26.97802544
       100.96144104      98.65974426      95.37735748      92.69839478      90.28887939      88.20022583      87.21867371      86.03322601      82.92853546      80.49723053      76.92732239      73.68440247      70.01129150      68.43979645      68.15058136      68.17131042      68.50404358      69.10647583      69.87551880      70.68721771      71.39953613      71.88513184      71.93553162      71.44788361      70.58512115      69.34431458      67.69616699      65.56447601      62.86966324      59.38526535      58.87570190      53.56578064      45.19978333      41.66490173      35.65993881      33.31681442      30.98413849
        98.65974426      97.10437775      92.69839478      91.39332581      90.28887939      88.20022583      86.23340607      84.74906158      82.92853546      79.56042480      76.92732239      74.19193268      71.25926971      70.07136536      69.84031677      69.88458252      70.33023071      71.04479218      71.85427856      72.64981079      73.31381989      73.73072815      73.71149445      73.23657227      72.42575073      71.28643799      69.78900909      67.82201385      66.30842590      64.83912659      62.05468369      58.87570190      53.56578064      41.66490173      35.65993881      35.65993881      30.98413849
        98.65974426      92.69839478      92.69839478      90.28887939      88.20022583      87.21867371      86.23340607      84.74906158      81.32525635      79.56042480      76.92732239      74.19193268      71.48468018      69.99037933      69.93244934      70.30052185      71.39093018      71.77478790      72.81832886      74.00769043      74.07347107      74.42408752      74.37804413      73.90922546      73.12643433      72.08648682      71.51026917      70.19281006      68.55593109      64.83912659      62.05468369      58.87570190      58.87570190      45.19978333      41.66490173      35.65993881      33.31681442
  botm  LAYERED
    INTERNAL  FACTOR  1.0
          96.09039307      96.13024139      96.25666046      96.25666046      96.28726959      96.23593903      96.02922058      95.70333862      94.61818695      92.70894623      92.26135254      90.48061371      89.44600677      85.18769073      82.03125000      78.31587219      75.09763336      65.97997284      62.95307159      62.08169556      62.00645447      61.26735687      60.70725250      60.15328217      58.83684158      57.15637970      55.18175125      55.18175125      53.35778427      47.93722153      46.20437241      46.20437241      45.16458130      42.71946335      42.71946335      39.04087067      35.99962997
          96.72914124      96.09039307      96.13024139      96.25666046      96.28726959      96.23593903      96.02922058      95.49099731      94.48647308      93.18162537      91.52616882      89.43696594      86.56060028      83.15284729      82.03125000      78.31587219      70.64496613      65.97997284      62.95307159      62.08169556      61.40056610      61.26735687      60.70725250      60.15328217      58.83684158      57.15637970      55.18175125      54.30734634      47.93722153      47.93722153      46.20437241      46.20437241      43.97345734      42.71946335      42.71946335      35.99962997      35.99962997
          97.49778748      96.72914124      96.09039307      96.13024139      96.25666046      96.22657013      95.83457947      95.08406830      93.99633026      92.56451416      90.74765015      88.44152069      85.51528168      81.88935852      77.50525665      72.49407196      67.61897278      64.11573029      62.49756622      62.00645447      61.40056610      60.78166199      60.15328217      58.83684158      58.17837143      56.36823273      55.18175125      53.35778427      47.93722153      47.93722153      46.20437241      45.16458130      42.71946335      42.71946335      39.04087067      35.99962997      31.22415924
          97.76670074      97.49778748      96.72914124      96.09039307      95.99311066      95.49706268      94.74761963      93.77453613      92.55210876      91.03510284      89.14903259      86.77485657      83.75533295      79.91094971      75.06882477      69.29592896      64.07550049      61.76077271      61.10717773      60.89859009      60.64193726      60.13110352      59.18395996      58.83684158      57.15637970      55.18175125      54.30734634      50.99590683      47.93722153      46.20437241      46.20437241      43.97345734      42.71946335      39.04087067      35.99962997      31.22415924      31.22415924
          98.35204315      97.76670074      96.97846222      96.02243805      94.91932678      93.74380493      92.61303711      91.43305206      90.10495758      88.55847168      86.70294952      84.39275360      81.41493988      77.47927856      72.14799500      64.46596527      53.77575684      54.32310867      56.75797272      58.02060318      58.67755890      58.62630844      57.98958588      56.95140839      55.52481461      54.30734634      53.35778427      50.99590683      47.93722153      46.20437241      45.16458130      42.71946335      39.04087067      35.99962997      35.99962997      31.22415924      24.29211807
          98.61625671      98.35204315      96.97846222      95.13890839      92.61560059      90.61146545      89.22698975      87.92340851      86.53657532      85.03145599      83.33377075      81.27623749      78.58163452      74.88236237      69.67008209      62.04887390      48.88888931      47.77777863      51.03382492      53.95616531      55.42432785      55.98432159      55.59080887      54.82408905      53.73880768      52.30831528      50.37643814      48.35088730      46.43504333      46.20437241      43.97345734      42.71946335      39.04087067      35.99962997      31.22415924      24.29211807      24.29211807
          99.34490204      98.47116852      97.05284882      93.67810822      88.12428284      85.47088623      84.46460724      83.11869049      81.67359924      80.26643372      78.88273621      77.35221100      75.27700806      72.22476959      67.81597900      61.75411224      51.86277008      46.11111069      45.55555725      49.62570190      51.39251328      52.09560776      51.93693542      51.38941574      50.62852478      49.62416458      48.31422043      46.74875641      44.94956207      42.81800079      40.84745407      39.04087067      35.99962997      31.22415924      29.95113373      24.29211807      18.74958992
         100.29252625      99.01184845      97.03530884      93.10408020      85.01431274      79.44444275      78.62719727      76.87342834      75.28450775      73.93200684      73.01248169      72.48957062      71.47556305      69.41047668      66.06285095      61.39675903      54.59486008      46.88072205      44.44444275      45.49948120      46.60012817      47.09242249      46.84635925      46.44017410      46.04969025      45.58082199      44.82624817      43.66368484      42.05564880      39.97275543      37.33663177      34.17969513      33.48136902      29.95113373      24.29211807      18.74958992      15.11955261
         100.53228760      99.49772644      97.19071198      93.24797821      86.94060516      79.44444275      76.66666412      73.88888550      71.11111450      68.33333588      65.55555725      65.00000000      66.86842346      66.38854218      64.09484863      60.55821991      55.71808243      49.16123962      43.33333206      40.55555725      40.00000000      40.59077835      39.97950363      39.55158234      39.52327728      39.76303482      39.97594452      39.24005508      37.82469940      35.82455444      33.32235718      30.34433365      26.82070541      24.29211807      21.27565956      15.11955261      12.02588463
         101.15061951      99.95815277      97.65837860      94.16442108      89.57428741      84.65061951      80.35812378      76.69876099      73.12384796      69.56716919      65.88367462      62.77777863      61.66666412      63.26345062      61.82621765      59.14474487      55.52262115      50.81394577      45.37471771      40.96897125      37.77777863      35.00000000      32.22222137      29.44444275      28.88888931      31.47253418      33.27091599      33.60053635      32.24243927      30.19605255      27.75003815      25.03706741      22.08341408      18.76416206      15.11955261      15.11955261      10.80568409
         101.46109772     100.27696991      98.09618378      94.99404907      91.17173004      87.00321960      82.90203857      79.00646973      75.23651886      71.48960114      67.60894012      63.40460968      60.00000000      59.44444275      59.23639679      57.07209015      54.04927826      50.47606659      46.75616074      42.98077774      39.24906921      35.86238098      32.66863632      29.64134598      26.66666794      24.44444466      25.80040932      26.95338631      25.21158791      22.74527931      20.18944550      17.65516281      15.43550491      13.38151550      11.32099915       9.93202114      10.80568409
         101.42813110     100.17642975      98.03238678      95.09864044      91.53376770      87.54634857      83.38343811      79.23432159      75.21315002      71.34709930      67.61635590      64.01802826      60.21201324      57.22222137      56.23895645      54.22768021      51.48804092      48.10843658      44.71608353      41.67704010      38.68365860      35.47543335      32.46049500      29.44444275      26.86635780      23.88888931      21.11111069      19.78235817      16.66449928      12.77777863      10.00000000       7.22222233       5.55555630       5.59710693       4.92963219       4.27938557       7.05373383
         101.00353241      99.64302063      97.38244629      94.27772522      90.42691803      86.10030365      81.60391235      77.13350677      72.94239044      69.02459717      65.55555725      62.77777863      60.00000000      57.22222137      54.44444275      51.66666794      48.88888931      46.11111069      43.33333206      40.55555725      37.77777863      35.00000000      32.22222137      31.15496063      26.66666794      23.88888931      21.11111069      18.33333206      15.55555534      15.00000000      12.42278481       9.33384705       4.44444466       1.66666651      -1.11111116      -3.88888896      -1.35955262
         100.27056122      98.76230621      96.33724213      92.93894958      88.42872620      83.33638763      78.40344238      73.88888550      71.11111450      68.33333588      66.18558502      64.01943970      61.50132751      58.88359070      55.85033417      52.60947418      49.63008881      46.83272171      43.59815216      40.55555725      40.00000000      41.92776108      41.42558670      39.97849274      37.73672867      35.36610413      32.95243073      30.49191666      28.11457443      25.80833817      22.93769455      19.35643768      14.93776894       9.95295429       4.96566200       2.73176527       7.84685135
         100.08039856      97.44425964      94.99815369      91.43991089      85.91739655      79.44444275      76.66666412      74.63040924      73.16852570      71.33744812      69.09729004      66.45140076      63.46939087      60.27632904      56.66249084      53.00939178      49.48006058      46.11111069      43.33333206      42.22222137      45.96562576      48.32507324      48.78060532      47.81556320      46.26879883      44.36273956      42.22244263      39.88937759      37.37435150      34.59614563      31.38043976      27.64879990      23.47854614      19.16504860      15.38151932      13.48690605      16.01107788
          98.59868622      96.67651367      93.65974426      90.12747192      85.66130066      80.33496857      78.91230011      77.54405212      75.83419800      73.66692352      70.97972870      67.73696899      63.52391815      59.10968018      54.84117126      51.66666794      48.88888931      47.22222137      48.72668076      50.88869858      52.92779922      54.42660522      54.97024155      54.28887177      53.08128738      51.46199417      49.50263214      47.22443771      44.60354614      41.56852341      38.03670120      34.02426147      29.70677185      25.36416817      21.26236916      18.36734200      17.38552666
          98.59868622      95.96144104      93.65974426      89.86888123      86.04132080      83.24512482      81.25640869      79.49988556      77.51707458      75.07183838      71.96694183      67.72767639      60.95950317      57.22222137      54.44444275      53.88888931      54.47963333      54.86957550      56.03429413      57.43316269      58.73913574      59.69684601      60.06093597      59.50473022      58.47613907      57.02780533      55.18647766      52.94366837      50.25304413      47.02412033      43.12842941      38.58039856      33.79989624      28.95093918      28.31681442      21.97802544      18.36734200
          95.96144104      93.65974426      92.10437775      87.69839478      86.39332581      83.69767761      82.02427673      80.33779144      78.17240143      75.65895081      72.39077759      67.74407959      60.00000000      58.88888931      59.17047882      59.50457001      59.89014435      60.47366333      61.33112335      62.31683350      63.22325134      63.87299347      64.05139923      63.54328156      62.61442566      61.27883911      59.52954865      57.32903290      54.61370468      51.28265381      47.08895493      44.06252289      40.19978333      34.18238449      30.65993881      25.98413849      21.97802544
          95.96144104      93.65974426      90.37735748      87.69839478      85.28887939      83.20022583      82.21867371      81.03322601      77.92853546      75.49723053      71.92732239      68.68440247      65.01129150      63.43979645      63.15058136      63.17131042      63.50404358      64.10647583      64.87551880      65.68721771      66.39953613      66.88513184      66.93553162      66.44788361      65.58512115      64.34431458      62.69616699      60.56447601      57.86966324      54.38526535      53.87570190      48.56578064      40.19978333      36.66490173      30.65993881      28.31681442      25.98413849
          93.65974426      92.10437775      87.69839478      86.39332581      85.28887939      83.20022583      81.23340607      79.74906158      77.92853546      74.56042480      71.92732239      69.19193268      66.25926971      65.07136536      64.84031677      64.88458252      65.33023071      66.04479218      66.85427856      67.64981079      68.31381989      68.73072815      68.71149445      68.23657227      67.42575073      66.28643799      64.78900909      62.82201385      61.30842590      59.83912659      57.05468369      53.87570190      48.56578064      36.66490173      30.65993881      30.65993881      25.98413849
          93.65974426      87.69839478      87.69839478      85.28887939      83.20022583      82.21867371      81.23340607      79.74906158      76.32525635      74.56042480      71.92732239      69.19193268      66.48468018      64.99037933      64.93244934      65.30052185      66.39093018      66.77478790      67.81832886      69.00769043      69.07347107      69.42408752      69.37804413      68.90922546      68.12643433      67.08648682      66.51026917      65.19281006      63.55593109      59.83912659      57.05468369      53.87570190      53.87570190      40.19978333      36.66490173      30.65993881      28.31681442
    INTERNAL  FACTOR  1.0
          88.59039307      88.63024139      88.75666046      88.75666046      88.78726959      88.73593903      88.52922058      88.20333862      87.11818695      85.20894623      84.76135254      82.98061371      81.94600677      77.68769073      74.53125000      70.81587219      67.59763336      58.47997284      55.45307159      54.58169556      54.50645447      53.76735687      53.20725250      52.65328217      51.33684158      49.65637970      47.68175125      47.68175125      45.85778427      40.43722153      38.70437241      38.70437241      37.66458130      35.21946335      35.21946335      31.54087067      28.49962997
          89.22914124      88.59039307      88.63024139      88.75666046      88.78726959      88.73593903      88.52922058      87.99099731      86.98647308      85.68162537      84.02616882      81.93696594      79.06060028      75.65284729      74.53125000      70.81587219      63.14496613      58.47997284      55.45307159      54.58169556      53.90056610      53.76735687      53.20725250      52.65328217      51.33684158      49.65637970      47.68175125      46.80734634      40.43722153      40.43722153      38.70437241      38.70437241      36.47345734      35.21946335      35.21946335      28.49962997      28.49962997
          89.99778748      89.22914124      88.59039307      88.63024139      88.75666046      88.72657013      88.33457947      87.58406830      86.49633026      85.06451416      83.24765015      80.94152069      78.01528168      74.38935852      70.00525665      64.99407196      60.11897278      56.61573029      54.99756622      54.50645447      53.90056610      53.28166199      52.65328217      51.33684158      50.67837143      48.86823273      47.68175125      45.85778427      40.43722153      40.43722153      38.70437241      37.66458130      35.21946335      35.21946335      31.54087067      28.49962997      23.72415924
          90.26670074      89.99778748      89.22914124      88.59039307      88.49311066      87.99706268      87.24761963      86.27453613      85.05210876      83.53510284      81.64903259      79.27485657      76.25533295      72.41094971      67.56882477      61.79592896      56.57550049      54.26077271      53.60717773      53.39859009      53.14193726      52.63110352      51.68395996      51.33684158      49.65637970      47.68175125      46.80734634      43.49590683      40.43722153      38.70437241      38.70437241      36.47345734      35.21946335      31.54087067      28.49962997      23.72415924      23.72415924