# File generated by Flopy version 3.9.1 on 04/15/2025 at 06:34:35.
BEGIN options
END options

BEGIN dimensions
  NPER  1
END dimensions

BEGIN perioddata
       1.00000000  1       1.00000000
END perioddata

