# File generated by Flopy version 3.9.1 on 04/15/2025 at 06:34:35.
BEGIN options
  PRINT_OPTION  all
END options

BEGIN linear
  INNER_MAXIMUM  100
END linear

