# File generated by Flopy version 3.9.1 on 04/06/2025 at 09:11:18.
BEGIN options
END options

BEGIN griddata
  strt
    CONSTANT   10000.00000000
END griddata

