# File generated by Flopy version 3.9.1 on 04/15/2025 at 06:34:35.
BEGIN options
END options

BEGIN griddata
  strt
    CONSTANT   10000.00000000
END griddata

