# File generated by Flopy version 3.9.1 on 04/15/2025 at 06:34:35.
BEGIN options
END options

BEGIN timing
  TDIS6  ex-gwf-toth.tdis
END timing

BEGIN models
  gwf6  ex-gwf-toth.nam  ex-gwf-toth
END models

BEGIN exchanges
END exchanges

BEGIN solutiongroup  1
  ims6  ex-gwf-toth.ims  ex-gwf-toth
END solutiongroup  1

