# File generated by Flopy version 3.9.1 on 04/16/2025 at 09:11:29.
BEGIN options
END options

BEGIN timing
  TDIS6  ex-gwf-toth.tdis
END timing

BEGIN models
  gwf6  ex-gwf-toth.nam  ex-gwf-toth
END models

BEGIN exchanges
END exchanges

BEGIN solutiongroup  1
  ims6  ex-gwf-toth.ims  ex-gwf-toth
END solutiongroup  1

