# File generated by Flopy version 3.9.1 on 03/05/2025 at 11:31:55.
BEGIN options
  READASARRAYS
  PRINT_FLOWS
END options

BEGIN period  1
  recharge
    CONSTANT       0.00114155
END period  1

