# File generated by Flopy version 3.9.1 on 04/04/2025 at 14:28:20.
BEGIN options
  SAVE_FLOWS
END options

BEGIN packages
  DIS6  gwf-outer.dis  dis
  IC6  gwf-outer.ic  ic
  NPF6  gwf-outer.npf  npf
  STO6  gwf-outer.sto  sto
  CHD6  gwf-outer.chd  chd-1
  RCH6  gwf-outer.rch  rch-1
  OC6  gwf-outer.oc  oc
END packages

