# File generated by Flopy version 3.9.1 on 03/05/2025 at 11:31:55.
BEGIN options
  SAVE_FLOWS
END options

BEGIN packages
  DIS6  gwt-outer.dis  dis
  IC6  gwt-outer.ic  ic
  ADV6  gwt-outer.adv  adv
  DSP6  gwt-outer.dsp  dsp-1
  MST6  gwt-outer.mst  mst-1
  SSM6  gwt-outer.ssm  ssm
  OC6  gwt-outer.oc  oc
END packages

