# File generated by Flopy version 3.9.1 on 03/05/2025 at 11:31:55.
BEGIN options
  SCHEME  upstream
END options

