# File generated by Flopy version 3.9.1 on 04/04/2025 at 14:28:20.
BEGIN options
  PRINT_FLOWS
END options

BEGIN sources
END sources

