# File generated by Flopy version 3.9.1 on 03/05/2025 at 11:31:55.
BEGIN options
  PRINT_FLOWS
END options

BEGIN sources
END sources

