# File generated by Flopy version 3.9.1 on 04/04/2025 at 14:28:20.
BEGIN options
  SORPTION  linear
END options

BEGIN griddata
  porosity
    CONSTANT       0.30000000
  bulk_density
    CONSTANT       1.70000000
  distcoef
    CONSTANT       0.17600000
END griddata

