# File generated by Flopy version 3.9.1 on 04/17/2025 at 15:36:10.
BEGIN options
END options

BEGIN griddata
  icelltype
    CONSTANT  1
  k
    CONSTANT       1.00000000
END griddata

