# File generated by Flopy version 3.9.1 on 04/17/2025 at 15:36:10.
BEGIN options
  BUDGET  FILEOUT  tutorial01_mf6.cbb
  HEAD  FILEOUT  tutorial01_mf6.hds
END options

BEGIN period  1
  SAVE  HEAD  ALL
  SAVE  BUDGET  ALL
  PRINT  HEAD  LAST
END period  1

