# File generated by Flopy version 3.9.1 on 05/14/2025 at 06:54:36.
BEGIN options
  COMPLEXITY  simple
END options

BEGIN nonlinear
  OUTER_DVCLOSE  1.00000000E-06
END nonlinear

BEGIN linear
  INNER_DVCLOSE  1.00000000E-06
  inner_rclose  1.00000000E-06
END linear

