# File generated by Flopy version 3.9.1 on 05/16/2025 at 11:06:01.
BEGIN options
  READASARRAYS
  auxiliary  iface  iflowface
END options

BEGIN period  1
  recharge
    CONSTANT       0.00500000
  iface
    CONSTANT       6.00000000
  iflowface
    CONSTANT      -1.00000000
END period  1

