# File generated by Flopy version 3.9.1 on 05/14/2025 at 06:54:36.
BEGIN options
END options

BEGIN dimensions
  MAXBOUND  1
END dimensions

BEGIN period  1
  3 11 10 -150000
END period  1

