# File generated by Flopy version 3.9.1 on 05/14/2025 at 06:54:36.
BEGIN options
END options

BEGIN griddata
  strt
    CONSTANT     400.00000000
END griddata

