# File generated by Flopy version 3.9.1 on 05/14/2025 at 06:54:36.
BEGIN options
  BUDGET  FILEOUT  mp7-p01-gwf.cbb
  HEAD  FILEOUT  mp7-p01-gwf.hds
END options

BEGIN period  1
  SAVE  HEAD  ALL
  SAVE  BUDGET  ALL
END period  1

