# Name file for MT3DMS, generated by Flopy version 3.9.1.
LIST              16  anisotropic_weak_mt.list
FTL               10  mt3d_link.ftl 
BTN               31  anisotropic_weak_mt.btn
ADV               32  anisotropic_weak_mt.adv
DSP               33  anisotropic_weak_mt.dsp
SSM               34  anisotropic_weak_mt.ssm
GCG               35  anisotropic_weak_mt.gcg
