## BTN for MT3DMS, generated by Flopy.
##
         1        20        40         2         1         1
S   CM  KG  
T T T F T 
 0
         0      0.25                           -1 #delr
         0         1                           -1 #delc
         0         0                           -1 #htop
        31         1          (40E15.6)        -1 #dz layer 1
   2.500000E-01   2.500000E-01   2.500000E-01   2.500000E-01   2.500000E-01   2.500000E-01   2.500000E-01   2.500000E-01   2.500000E-01   2.500000E-01   2.500000E-01   2.500000E-01   2.500000E-01   2.500000E-01   2.500000E-01   2.500000E-01   2.500000E-01   2.500000E-01   2.500000E-01   2.500000E-01   2.500000E-01   2.500000E-01   2.500000E-01   2.500000E-01   2.500000E-01   2.500000E-01   2.500000E-01   2.500000E-01   2.500000E-01   2.500000E-01   2.500000E-01   2.500000E-01   2.500000E-01   2.500000E-01   2.500000E-01   2.500000E-01   2.500000E-01   2.500000E-01   2.500000E-01   2.500000E-01
   2.500000E-01   2.500000E-01   2.500000E-01   2.500000E-01   2.500000E-01   2.500000E-01   2.500000E-01   2.500000E-01   2.500000E-01   2.500000E-01   2.500000E-01   2.500000E-01   2.500000E-01   2.500000E-01   2.500000E-01   2.500000E-01   2.500000E-01   2.500000E-01   2.500000E-01   2.500000E-01   2.500000E-01   2.500000E-01   2.500000E-01   2.500000E-01   2.500000E-01   2.500000E-01   2.500000E-01   2.500000E-01   2.500000E-01   2.500000E-01   2.500000E-01   2.500000E-01   2.500000E-01   2.500000E-01   2.500000E-01   2.500000E-01   2.500000E-01   2.500000E-01   2.500000E-01   2.500000E-01
   2.500000E-01   2.500000E-01   2.500000E-01   2.500000E-01   2.500000E-01   2.500000E-01   2.500000E-01   2.500000E-01   2.500000E-01   2.500000E-01   2.500000E-01   2.500000E-01   2.500000E-01   2.500000E-01   2.500000E-01   2.500000E-01   2.500000E-01   2.500000E-01   2.500000E-01   2.500000E-01   2.500000E-01   2.500000E-01   2.500000E-01   2.500000E-01   2.500000E-01   2.500000E-01   2.500000E-01   2.500000E-01   2.500000E-01   2.500000E-01   2.500000E-01   2.500000E-01   2.500000E-01   2.500000E-01   2.500000E-01   2.500000E-01   2.500000E-01   2.500000E-01   2.500000E-01   2.500000E-01
   2.500000E-01   2.500000E-01   2.500000E-01   2.500000E-01   2.500000E-01   2.500000E-01   2.500000E-01   2.500000E-01   2.500000E-01   2.500000E-01   2.500000E-01   2.500000E-01   2.500000E-01   2.500000E-01   2.500000E-01   2.500000E-01   2.500000E-01   2.500000E-01   2.500000E-01   2.500000E-01   2.500000E-01   2.500000E-01   2.500000E-01   2.500000E-01   2.500000E-01   2.500000E-01   2.500000E-01   2.500000E-01   2.500000E-01   2.500000E-01   2.500000E-01   2.500000E-01   2.500000E-01   2.500000E-01   2.500000E-01   2.500000E-01   2.500000E-01   2.500000E-01   2.500000E-01   2.500000E-01
   2.500000E-01   2.500000E-01   2.500000E-01   2.500000E-01   2.500000E-01   2.500000E-01   2.500000E-01   2.500000E-01   2.500000E-01   2.500000E-01   2.500000E-01   2.500000E-01   2.500000E-01   2.500000E-01   2.500000E-01   2.500000E-01   2.500000E-01   2.500000E-01   2.500000E-01   2.500000E-01   2.500000E-01   2.500000E-01   2.500000E-01   2.500000E-01   2.500000E-01   2.500000E-01   2.500000E-01   2.500000E-01   2.500000E-01   2.500000E-01   2.500000E-01   2.500000E-01   2.500000E-01   2.500000E-01   2.500000E-01   2.500000E-01   2.500000E-01   2.500000E-01   2.500000E-01   2.500000E-01
   2.500000E-01   2.500000E-01   2.500000E-01   2.500000E-01   2.500000E-01   2.500000E-01   2.500000E-01   2.500000E-01   2.500000E-01   2.500000E-01   2.500000E-01   2.500000E-01   2.500000E-01   2.500000E-01   2.500000E-01   2.500000E-01   2.500000E-01   2.500000E-01   2.500000E-01   2.500000E-01   2.500000E-01   2.500000E-01   2.500000E-01   2.500000E-01   2.500000E-01   2.500000E-01   2.500000E-01   2.500000E-01   2.500000E-01   2.500000E-01   2.500000E-01   2.500000E-01   2.500000E-01   2.500000E-01   2.500000E-01   2.500000E-01   2.500000E-01   2.500000E-01   2.500000E-01   2.500000E-01
   2.500000E-01   2.500000E-01   2.500000E-01   2.500000E-01   2.500000E-01   2.500000E-01   2.500000E-01   2.500000E-01   2.500000E-01   2.500000E-01   2.500000E-01   2.500000E-01   2.500000E-01   2.500000E-01   2.500000E-01   2.500000E-01   2.500000E-01   2.500000E-01   2.500000E-01   2.500000E-01   2.500000E-01   2.500000E-01   2.500000E-01   2.500000E-01   2.500000E-01   2.500000E-01   2.500000E-01   2.500000E-01   2.500000E-01   2.500000E-01   2.500000E-01   2.500000E-01   2.500000E-01   2.500000E-01   2.500000E-01   2.500000E-01   2.500000E-01   2.500000E-01   2.500000E-01   2.500000E-01
   2.500000E-01   2.500000E-01   2.500000E-01   2.500000E-01   2.500000E-01   2.500000E-01   2.500000E-01   2.500000E-01   2.500000E-01   2.500000E-01   2.500000E-01   2.500000E-01   2.500000E-01   2.500000E-01   2.500000E-01   2.500000E-01   2.500000E-01   2.500000E-01   2.500000E-01   2.500000E-01   2.500000E-01   2.500000E-01   2.500000E-01   2.500000E-01   2.500000E-01   2.500000E-01   2.500000E-01   2.500000E-01   2.500000E-01   2.500000E-01   2.500000E-01   2.500000E-01   2.500000E-01   2.500000E-01   2.500000E-01   2.500000E-01   2.500000E-01   2.500000E-01   2.500000E-01   2.500000E-01
   2.500000E-01   2.500000E-01   2.500000E-01   2.500000E-01   2.500000E-01   2.500000E-01   2.500000E-01   2.500000E-01   2.500000E-01   2.500000E-01   2.500000E-01   2.500000E-01   2.500000E-01   2.500000E-01   2.500000E-01   2.500000E-01   2.500000E-01   2.500000E-01   2.500000E-01   2.500000E-01   2.500000E-01   2.500000E-01   2.500000E-01   2.500000E-01   2.500000E-01   2.500000E-01   2.500000E-01   2.500000E-01   2.500000E-01   2.500000E-01   2.500000E-01   2.500000E-01   2.500000E-01   2.500000E-01   2.500000E-01   2.500000E-01   2.500000E-01   2.500000E-01   2.500000E-01   2.500000E-01
   2.500000E-01   2.500000E-01   2.500000E-01   2.500000E-01   2.500000E-01   2.500000E-01   2.500000E-01   2.500000E-01   2.500000E-01   2.500000E-01   2.500000E-01   2.500000E-01   2.500000E-01   2.500000E-01   2.500000E-01   2.500000E-01   2.500000E-01   2.500000E-01   2.500000E-01   2.500000E-01   2.500000E-01   2.500000E-01   2.500000E-01   2.500000E-01   2.500000E-01   2.500000E-01   2.500000E-01   2.500000E-01   2.500000E-01   2.500000E-01   2.500000E-01   2.500000E-01   2.500000E-01   2.500000E-01   2.500000E-01   2.500000E-01   2.500000E-01   2.500000E-01   2.500000E-01   2.500000E-01
   2.500000E-01   2.500000E-01   2.500000E-01   2.500000E-01   2.500000E-01   2.500000E-01   2.500000E-01   2.500000E-01   2.500000E-01   2.500000E-01   2.500000E-01   2.500000E-01   2.500000E-01   2.500000E-01   2.500000E-01   2.500000E-01   2.500000E-01   2.500000E-01   2.500000E-01   2.500000E-01   2.500000E-01   2.500000E-01   2.500000E-01   2.500000E-01   2.500000E-01   2.500000E-01   2.500000E-01   2.500000E-01   2.500000E-01   2.500000E-01   2.500000E-01   2.500000E-01   2.500000E-01   2.500000E-01   2.500000E-01   2.500000E-01   2.500000E-01   2.500000E-01   2.500000E-01   2.500000E-01
   2.500000E-01   2.500000E-01   2.500000E-01   2.500000E-01   2.500000E-01   2.500000E-01   2.500000E-01   2.500000E-01   2.500000E-01   2.500000E-01   2.500000E-01   2.500000E-01   2.500000E-01   2.500000E-01   2.500000E-01   2.500000E-01   2.500000E-01   2.500000E-01   2.500000E-01   2.500000E-01   2.500000E-01   2.500000E-01   2.500000E-01   2.500000E-01   2.500000E-01   2.500000E-01   2.500000E-01   2.500000E-01   2.500000E-01   2.500000E-01   2.500000E-01   2.500000E-01   2.500000E-01   2.500000E-01   2.500000E-01   2.500000E-01   2.500000E-01   2.500000E-01   2.500000E-01   2.500000E-01
   2.500000E-01   2.500000E-01   2.500000E-01   2.500000E-01   2.500000E-01   2.500000E-01   2.500000E-01   2.500000E-01   2.500000E-01   2.500000E-01   2.500000E-01   2.500000E-01   2.500000E-01   2.500000E-01   2.500000E-01   2.500000E-01   2.500000E-01   2.500000E-01   2.500000E-01   2.500000E-01   2.500000E-01   2.500000E-01   2.500000E-01   2.500000E-01   2.500000E-01   2.500000E-01   2.500000E-01   2.500000E-01   2.500000E-01   2.500000E-01   2.500000E-01   2.500000E-01   2.500000E-01   2.500000E-01   2.500000E-01   2.500000E-01   2.500000E-01   2.500000E-01   2.500000E-01   2.500000E-01
   2.500000E-01   2.500000E-01   2.500000E-01   2.500000E-01   2.500000E-01   2.500000E-01   2.500000E-01   2.500000E-01   2.500000E-01   2.500000E-01   2.500000E-01   2.500000E-01   2.500000E-01   2.500000E-01   2.500000E-01   2.500000E-01   2.500000E-01   2.500000E-01   2.500000E-01   2.500000E-01   2.500000E-01   2.500000E-01   2.500000E-01   2.500000E-01   2.500000E-01   2.500000E-01   2.500000E-01   2.500000E-01   2.500000E-01   2.500000E-01   2.500000E-01   2.500000E-01   2.500000E-01   2.500000E-01   2.500000E-01   2.500000E-01   2.500000E-01   2.500000E-01   2.500000E-01   2.500000E-01
   2.500000E-01   2.500000E-01   2.500000E-01   2.500000E-01   2.500000E-01   2.500000E-01   2.500000E-01   2.500000E-01   2.500000E-01   2.500000E-01   2.500000E-01   2.500000E-01   2.500000E-01   2.500000E-01   2.500000E-01   2.500000E-01   2.500000E-01   2.500000E-01   2.500000E-01   2.500000E-01   2.500000E-01   2.500000E-01   2.500000E-01   2.500000E-01   2.500000E-01   2.500000E-01   2.500000E-01   2.500000E-01   2.500000E-01   2.500000E-01   2.500000E-01   2.500000E-01   2.500000E-01   2.500000E-01   2.500000E-01   2.500000E-01   2.500000E-01   2.500000E-01   2.500000E-01   2.500000E-01
   2.500000E-01   2.500000E-01   2.500000E-01   2.500000E-01   2.500000E-01   2.500000E-01   2.500000E-01   2.500000E-01   2.500000E-01   2.500000E-01   2.500000E-01   2.500000E-01   2.500000E-01   2.500000E-01   2.500000E-01   2.500000E-01   2.500000E-01   2.500000E-01   2.500000E-01   2.500000E-01   2.500000E-01   2.500000E-01   2.500000E-01   2.500000E-01   2.500000E-01   2.500000E-01   2.500000E-01   2.500000E-01   2.500000E-01   2.500000E-01   2.500000E-01   2.500000E-01   2.500000E-01   2.500000E-01   2.500000E-01   2.500000E-01   2.500000E-01   2.500000E-01   2.500000E-01   2.500000E-01
   2.500000E-01   2.500000E-01   2.500000E-01   2.500000E-01   2.500000E-01   2.500000E-01   2.500000E-01   2.500000E-01   2.500000E-01   2.500000E-01   2.500000E-01   2.500000E-01   2.500000E-01   2.500000E-01   2.500000E-01   2.500000E-01   2.500000E-01   2.500000E-01   2.500000E-01   2.500000E-01   2.500000E-01   2.500000E-01   2.500000E-01   2.500000E-01   2.500000E-01   2.500000E-01   2.500000E-01   2.500000E-01   2.500000E-01   2.500000E-01   2.500000E-01   2.500000E-01   2.500000E-01   2.500000E-01   2.500000E-01   2.500000E-01   2.500000E-01   2.500000E-01   2.500000E-01   2.500000E-01
   2.500000E-01   2.500000E-01   2.500000E-01   2.500000E-01   2.500000E-01   2.500000E-01   2.500000E-01   2.500000E-01   2.500000E-01   2.500000E-01   2.500000E-01   2.500000E-01   2.500000E-01   2.500000E-01   2.500000E-01   2.500000E-01   2.500000E-01   2.500000E-01   2.500000E-01   2.500000E-01   2.500000E-01   2.500000E-01   2.500000E-01   2.500000E-01   2.500000E-01   2.500000E-01   2.500000E-01   2.500000E-01   2.500000E-01   2.500000E-01   2.500000E-01   2.500000E-01   2.500000E-01   2.500000E-01   2.500000E-01   2.500000E-01   2.500000E-01   2.500000E-01   2.500000E-01   2.500000E-01
   2.500000E-01   2.500000E-01   2.500000E-01   2.500000E-01   2.500000E-01   2.500000E-01   2.500000E-01   2.500000E-01   2.500000E-01   2.500000E-01   2.500000E-01   2.500000E-01   2.500000E-01   2.500000E-01   2.500000E-01   2.500000E-01   2.500000E-01   2.500000E-01   2.500000E-01   2.500000E-01   2.500000E-01   2.500000E-01   2.500000E-01   2.500000E-01   2.500000E-01   2.500000E-01   2.500000E-01   2.500000E-01   2.500000E-01   2.500000E-01   2.500000E-01   2.500000E-01   2.500000E-01   2.500000E-01   2.500000E-01   2.500000E-01   2.500000E-01   2.500000E-01   2.500000E-01   2.500000E-01
   2.500000E-01   2.500000E-01   2.500000E-01   2.500000E-01   2.500000E-01   2.500000E-01   2.500000E-01   2.500000E-01   2.500000E-01   2.500000E-01   2.500000E-01   2.500000E-01   2.500000E-01   2.500000E-01   2.500000E-01   2.500000E-01   2.500000E-01   2.500000E-01   2.500000E-01   2.500000E-01   2.500000E-01   2.500000E-01   2.500000E-01   2.500000E-01   2.500000E-01   2.500000E-01   2.500000E-01   2.500000E-01   2.500000E-01   2.500000E-01   2.500000E-01   2.500000E-01   2.500000E-01   2.500000E-01   2.500000E-01   2.500000E-01   2.500000E-01   2.500000E-01   2.500000E-01   2.500000E-01
         0       0.3                           -1 #prsity layer 1
        31         1            (40I10)        -1 #icbund layer 1
         1         1         1         1         1         1         1         1         1         1         1         1         1         1         1         1         1         1         1         1         1         1         1         1         1         1         1         1         1         1         1         1         1         1         1         1         1         1         1         1
         1         1         1         1         1         1         1         1         1         1         1         1         1         1         1         1         1         1         1         1         1         1         1         1         1         1         1         1         1         1         1         1         1         1         1         1         1         1         1         1
         1         1         1         1         1         1         1         1         1         1         1         1         1         1         1         1         1         1         1         1         1         1         1         1         1         1         1         1         1         1         1         1         1         1         1         1         1         1         1         1
         1         1         1         1         1         1         1         1         1         1         1         1         1         1         1         1         1         1         1         1         1         1         1         1         1         1         1         1         1         1         1         1         1         1         1         1         1         1         1         1
         1         1         1         1         1         1         1         1         1         1         1         1         1         1         1         1         1         1         1         1         1         1         1         1         1         1         1         1         1         1         1         1         1         1         1         1         1         1         1         1
         1         1         1         1         1         1         1         1         1         1         1         1         1         1         1         1         1         1         1         1         1         1         1         1         1         1         1         1         1         1         1         1         1         1         1         1         1         1         1         1
         1         1         1         1         1         1         1         1         1         1         1         1         1         1         1         1         1         1         1         1         1         1         1         1         1         1         1         1         1         1         1         1         1         1         1         1         1         1         1         1
         1         1         1         1         1         1         1         1         1         1         1         1         1         1         1         1         1         1         1         1         1         1         1         1         1         1         1         1         1         1         1         1         1         1         1         1         1         1         1         1
         1         1         1         1         1         1         1         1         1         1         1         1         1         1         1         1         1         1         1         1         1         1         1         1         1         1         1         1         1         1         1         1         1         1         1         1         1         1         1         1
         1         1         1         1         1         1         1         1         1         1         1         1         1         1         1         1         1         1         1         1         1         1         1         1         1         1         1         1         1         1         1         1         1         1         1         1         1         1         1         1
         1         1         1         1         1         1         1         1         1         1         1         1         1         1         1         1         1         1         1         1         1         1         1         1         1         1         1         1         1         1         1         1         1         1         1         1         1         1         1         1
         1         1         1         1         1         1         1         1         1         1         1         1         1         1         1         1         1         1         1         1         1         1         1         1         1         1         1         1         1         1         1         1         1         1         1         1         1         1         1         1
         1         1         1         1         1         1         1         1         1         1         1         1         1         1         1         1         1         1         1         1         1         1         1         1         1         1         1         1         1         1         1         1         1         1         1         1         1         1         1         1
         1         1         1         1         1         1         1         1         1         1         1         1         1         1         1         1         1         1         1         1         1         1         1         1         1         1         1         1         1         1         1         1         1         1         1         1         1         1         1         1
         1         1         1         1         1         1         1         1         1         1         1         1         1         1         1         1         1         1         1         1         1         1         1         1         1         1         1         1         1         1         1         1         1         1         1         1         1         1         1         1
         1         1         1         1         1         1         1         1         1         1         1         1         1         1         1         1         1         1         1         1         1         1         1         1         1         1         1         1         1         1         1         1         1         1         1         1         1         1         1         1
         1         1         1         1         1         1         1         1         1         1         1         1         1         1         1         1         1         1         1         1         1         1         1         1         1         1         1         1         1         1         1         1         1         1         1         1         1         1         1         1
         1         1         1         1         1         1         1         1         1         1         1         1         1         1         1         1         1         1         1         1         1         1         1         1         1         1         1         1         1         1         1         1         1         1         1         1         1         1         1         1
         1         1         1         1         1         1         1         1         1         1         1         1         1         1         1         1         1         1         1         1         1         1         1         1         1         1         1         1         1         1         1         1         1         1         1         1         1         1         1         1
         1         1         1         1         1         1         1         1         1         1         1         1         1         1         1         1         1         1         1         1         1         1         1         1         1         1         1         1         1         1         1         1         1         1         1         1         1         1         1         1
        31         1          (40E15.6)        -1 #sconc1 layer 1
   0.000000E+00   0.000000E+00   0.000000E+00   0.000000E+00   0.000000E+00   0.000000E+00   0.000000E+00   0.000000E+00   0.000000E+00   0.000000E+00   0.000000E+00   0.000000E+00   0.000000E+00   0.000000E+00   0.000000E+00   0.000000E+00   0.000000E+00   0.000000E+00   0.000000E+00   0.000000E+00   0.000000E+00   0.000000E+00   0.000000E+00   0.000000E+00   0.000000E+00   0.000000E+00   0.000000E+00   0.000000E+00   0.000000E+00   0.000000E+00   0.000000E+00   0.000000E+00   0.000000E+00   0.000000E+00   0.000000E+00   0.000000E+00   0.000000E+00   0.000000E+00   0.000000E+00   0.000000E+00
   0.000000E+00   0.000000E+00   0.000000E+00   0.000000E+00   0.000000E+00   0.000000E+00   0.000000E+00   0.000000E+00   0.000000E+00   0.000000E+00   0.000000E+00   0.000000E+00   0.000000E+00   0.000000E+00   0.000000E+00   0.000000E+00   0.000000E+00   0.000000E+00   0.000000E+00   0.000000E+00   0.000000E+00   0.000000E+00   0.000000E+00   0.000000E+00   0.000000E+00   0.000000E+00   0.000000E+00   0.000000E+00   0.000000E+00   0.000000E+00   0.000000E+00   0.000000E+00   0.000000E+00   0.000000E+00   0.000000E+00   0.000000E+00   0.000000E+00   0.000000E+00   0.000000E+00   0.000000E+00
   0.000000E+00   0.000000E+00   0.000000E+00   0.000000E+00   0.000000E+00   0.000000E+00   0.000000E+00   0.000000E+00   0.000000E+00   0.000000E+00   0.000000E+00   0.000000E+00   0.000000E+00   0.000000E+00   0.000000E+00   0.000000E+00   0.000000E+00   0.000000E+00   0.000000E+00   0.000000E+00   0.000000E+00   0.000000E+00   0.000000E+00   0.000000E+00   0.000000E+00   0.000000E+00   0.000000E+00   0.000000E+00   0.000000E+00   0.000000E+00   0.000000E+00   0.000000E+00   0.000000E+00   0.000000E+00   0.000000E+00   0.000000E+00   0.000000E+00   0.000000E+00   0.000000E+00   0.000000E+00
   0.000000E+00   0.000000E+00   0.000000E+00   0.000000E+00   0.000000E+00   0.000000E+00   0.000000E+00   0.000000E+00   0.000000E+00   0.000000E+00   0.000000E+00   0.000000E+00   0.000000E+00   0.000000E+00   0.000000E+00   0.000000E+00   0.000000E+00   0.000000E+00   0.000000E+00   0.000000E+00   0.000000E+00   0.000000E+00   0.000000E+00   0.000000E+00   0.000000E+00   0.000000E+00   0.000000E+00   0.000000E+00   0.000000E+00   0.000000E+00   0.000000E+00   0.000000E+00   0.000000E+00   0.000000E+00   0.000000E+00   0.000000E+00   0.000000E+00   0.000000E+00   0.000000E+00   0.000000E+00
   0.000000E+00   0.000000E+00   0.000000E+00   0.000000E+00   0.000000E+00   0.000000E+00   0.000000E+00   0.000000E+00   0.000000E+00   0.000000E+00   0.000000E+00   0.000000E+00   0.000000E+00   0.000000E+00   0.000000E+00   0.000000E+00   0.000000E+00   0.000000E+00   0.000000E+00   0.000000E+00   0.000000E+00   0.000000E+00   0.000000E+00   0.000000E+00   0.000000E+00   0.000000E+00   0.000000E+00   0.000000E+00   0.000000E+00   0.000000E+00   0.000000E+00   0.000000E+00   0.000000E+00   0.000000E+00   0.000000E+00   0.000000E+00   0.000000E+00   0.000000E+00   0.000000E+00   0.000000E+00
   0.000000E+00   0.000000E+00   0.000000E+00   0.000000E+00   0.000000E+00   0.000000E+00   0.000000E+00   0.000000E+00   0.000000E+00   0.000000E+00   0.000000E+00   0.000000E+00   0.000000E+00   0.000000E+00   0.000000E+00   0.000000E+00   0.000000E+00   0.000000E+00   0.000000E+00   0.000000E+00   0.000000E+00   0.000000E+00   0.000000E+00   0.000000E+00   0.000000E+00   0.000000E+00   0.000000E+00   0.000000E+00   0.000000E+00   0.000000E+00   0.000000E+00   0.000000E+00   0.000000E+00   0.000000E+00   0.000000E+00   0.000000E+00   0.000000E+00   0.000000E+00   0.000000E+00   0.000000E+00
   0.000000E+00   0.000000E+00   0.000000E+00   0.000000E+00   0.000000E+00   0.000000E+00   0.000000E+00   0.000000E+00   0.000000E+00   0.000000E+00   0.000000E+00   0.000000E+00   0.000000E+00   0.000000E+00   0.000000E+00   0.000000E+00   0.000000E+00   0.000000E+00   0.000000E+00   0.000000E+00   0.000000E+00   0.000000E+00   0.000000E+00   0.000000E+00   0.000000E+00   0.000000E+00   0.000000E+00   0.000000E+00   0.000000E+00   0.000000E+00   0.000000E+00   0.000000E+00   0.000000E+00   0.000000E+00   0.000000E+00   0.000000E+00   0.000000E+00   0.000000E+00   0.000000E+00   0.000000E+00
   0.000000E+00   0.000000E+00   0.000000E+00   0.000000E+00   0.000000E+00   0.000000E+00   0.000000E+00   0.000000E+00   0.000000E+00   0.000000E+00   0.000000E+00   0.000000E+00   0.000000E+00   0.000000E+00   0.000000E+00   0.000000E+00   0.000000E+00   0.000000E+00   0.000000E+00   0.000000E+00   0.000000E+00   0.000000E+00   0.000000E+00   0.000000E+00   0.000000E+00   0.000000E+00   0.000000E+00   0.000000E+00   0.000000E+00   0.000000E+00   0.000000E+00   0.000000E+00   0.000000E+00   0.000000E+00   0.000000E+00   0.000000E+00   0.000000E+00   0.000000E+00   0.000000E+00   0.000000E+00
   0.000000E+00   0.000000E+00   0.000000E+00   0.000000E+00   0.000000E+00   0.000000E+00   0.000000E+00   0.000000E+00   0.000000E+00   0.000000E+00   0.000000E+00   0.000000E+00   0.000000E+00   0.000000E+00   0.000000E+00   0.000000E+00   0.000000E+00   0.000000E+00   0.000000E+00   0.000000E+00   0.000000E+00   0.000000E+00   0.000000E+00   0.000000E+00   0.000000E+00   0.000000E+00   0.000000E+00   0.000000E+00   0.000000E+00   0.000000E+00   0.000000E+00   0.000000E+00   0.000000E+00   0.000000E+00   0.000000E+00   0.000000E+00   0.000000E+00   0.000000E+00   0.000000E+00   0.000000E+00
   0.000000E+00   0.000000E+00   0.000000E+00   0.000000E+00   0.000000E+00   0.000000E+00   0.000000E+00   0.000000E+00   0.000000E+00   0.000000E+00   0.000000E+00   0.000000E+00   0.000000E+00   0.000000E+00   0.000000E+00   0.000000E+00   0.000000E+00   0.000000E+00   0.000000E+00   0.000000E+00   0.000000E+00   0.000000E+00   0.000000E+00   0.000000E+00   0.000000E+00   0.000000E+00   0.000000E+00   0.000000E+00   0.000000E+00   0.000000E+00   0.000000E+00   0.000000E+00   0.000000E+00   0.000000E+00   0.000000E+00   0.000000E+00   0.000000E+00   0.000000E+00   0.000000E+00   0.000000E+00
   0.000000E+00   0.000000E+00   0.000000E+00   0.000000E+00   0.000000E+00   0.000000E+00   0.000000E+00   0.000000E+00   0.000000E+00   0.000000E+00   0.000000E+00   0.000000E+00   0.000000E+00   0.000000E+00   0.000000E+00   0.000000E+00   0.000000E+00   0.000000E+00   0.000000E+00   0.000000E+00   0.000000E+00   0.000000E+00   0.000000E+00   0.000000E+00   0.000000E+00   0.000000E+00   0.000000E+00   0.000000E+00   0.000000E+00   0.000000E+00   0.000000E+00   0.000000E+00   0.000000E+00   0.000000E+00   0.000000E+00   0.000000E+00   0.000000E+00   0.000000E+00   0.000000E+00   0.000000E+00
   0.000000E+00   0.000000E+00   0.000000E+00   0.000000E+00   0.000000E+00   0.000000E+00   0.000000E+00   0.000000E+00   0.000000E+00   0.000000E+00   0.000000E+00   0.000000E+00   0.000000E+00   0.000000E+00   0.000000E+00   0.000000E+00   0.000000E+00   0.000000E+00   0.000000E+00   0.000000E+00   0.000000E+00   0.000000E+00   0.000000E+00   0.000000E+00   0.000000E+00   0.000000E+00   0.000000E+00   0.000000E+00   0.000000E+00   0.000000E+00   0.000000E+00   0.000000E+00   0.000000E+00   0.000000E+00   0.000000E+00   0.000000E+00   0.000000E+00   0.000000E+00   0.000000E+00   0.000000E+00
   0.000000E+00   0.000000E+00   0.000000E+00   0.000000E+00   0.000000E+00   0.000000E+00   0.000000E+00   0.000000E+00   0.000000E+00   0.000000E+00   0.000000E+00   0.000000E+00   0.000000E+00   0.000000E+00   0.000000E+00   0.000000E+00   0.000000E+00   0.000000E+00   0.000000E+00   0.000000E+00   0.000000E+00   0.000000E+00   0.000000E+00   0.000000E+00   0.000000E+00   0.000000E+00   0.000000E+00   0.000000E+00   0.000000E+00   0.000000E+00   0.000000E+00   0.000000E+00   0.000000E+00   0.000000E+00   0.000000E+00   0.000000E+00   0.000000E+00   0.000000E+00   0.000000E+00   0.000000E+00
   0.000000E+00   0.000000E+00   0.000000E+00   0.000000E+00   0.000000E+00   0.000000E+00   0.000000E+00   0.000000E+00   0.000000E+00   0.000000E+00   0.000000E+00   0.000000E+00   0.000000E+00   0.000000E+00   0.000000E+00   0.000000E+00   0.000000E+00   0.000000E+00   0.000000E+00   0.000000E+00   0.000000E+00   0.000000E+00   0.000000E+00   0.000000E+00   0.000000E+00   0.000000E+00   0.000000E+00   0.000000E+00   0.000000E+00   0.000000E+00   0.000000E+00   0.000000E+00   0.000000E+00   0.000000E+00   0.000000E+00   0.000000E+00   0.000000E+00   0.000000E+00   0.000000E+00   0.000000E+00
   0.000000E+00   0.000000E+00   0.000000E+00   0.000000E+00   0.000000E+00   0.000000E+00   0.000000E+00   0.000000E+00   0.000000E+00   0.000000E+00   0.000000E+00   0.000000E+00   0.000000E+00   0.000000E+00   0.000000E+00   0.000000E+00   0.000000E+00   0.000000E+00   0.000000E+00   0.000000E+00   0.000000E+00   0.000000E+00   0.000000E+00   0.000000E+00   0.000000E+00   0.000000E+00   0.000000E+00   0.000000E+00   0.000000E+00   0.000000E+00   0.000000E+00   0.000000E+00   0.000000E+00   0.000000E+00   0.000000E+00   0.000000E+00   0.000000E+00   0.000000E+00   0.000000E+00   0.000000E+00