# File generated by Flopy version 3.9.1 on 06/10/2025 at 20:06:08.
BEGIN options
  READASARRAYS
END options

BEGIN period  1
  recharge
    CONSTANT  1.60000000E-09
END period  1

