# Name file for MODPATH, generated by Flopy version 3.9.1.
MPBAS  86 ex6mnw.mpbas
DIS   3 Example_mnw.dis
HEAD  88 EXAMPLE.HED
BUDGET  89 EXAMPLE.BUD
