# PCG package for MODFLOW-2005 generated by Flopy 3.9.1
15 20 1 0
0.0001 1000.0 1.0 2 1 0 1.0 
