# RIV package for MODFLOW-2005 generated by Flopy 3.9.1
        25        53 AUXILIARY IFACE
        25         0 # stress period 1
         1         1        25           320.0        100000.0           315.0             6.0
         1         2        25           320.0        100000.0           315.0             6.0
         1         3        25           320.0        100000.0           315.0             6.0
         1         4        25           320.0        100000.0           315.0             6.0
         1         5        25           320.0        100000.0           315.0             6.0
         1         6        25           320.0        100000.0           315.0             6.0
         1         7        25           320.0        100000.0           315.0             6.0
         1         8        25           320.0        100000.0           315.0             6.0
         1         9        25           320.0        100000.0           315.0             6.0
         1        10        25           320.0        100000.0           315.0             6.0
         1        11        25           320.0        100000.0           315.0             6.0
         1        12        25           320.0        100000.0           315.0             6.0
         1        13        25           320.0        100000.0           315.0             6.0
         1        14        25           320.0        100000.0           315.0             6.0
         1        15        25           320.0        100000.0           315.0             6.0
         1        16        25           320.0        100000.0           315.0             6.0
         1        17        25           320.0        100000.0           315.0             6.0
         1        18        25           320.0        100000.0           315.0             6.0
         1        19        25           320.0        100000.0           315.0             6.0
         1        20        25           320.0        100000.0           315.0             6.0
         1        21        25           320.0        100000.0           315.0             6.0
         1        22        25           320.0        100000.0           315.0             6.0
         1        23        25           320.0        100000.0           315.0             6.0
         1        24        25           320.0        100000.0           315.0             6.0
         1        25        25           320.0        100000.0           315.0             6.0
        25         0 # stress period 2
         1         1        25           320.0        100000.0           315.0             6.0
         1         2        25           320.0        100000.0           315.0             6.0
         1         3        25           320.0        100000.0           315.0             6.0
         1         4        25           320.0        100000.0           315.0             6.0
         1         5        25           320.0        100000.0           315.0             6.0
         1         6        25           320.0        100000.0           315.0             6.0
         1         7        25           320.0        100000.0           315.0             6.0
         1         8        25           320.0        100000.0           315.0             6.0
         1         9        25           320.0        100000.0           315.0             6.0
         1        10        25           320.0        100000.0           315.0             6.0
         1        11        25           320.0        100000.0           315.0             6.0
         1        12        25           320.0        100000.0           315.0             6.0
         1        13        25           320.0        100000.0           315.0             6.0
         1        14        25           320.0        100000.0           315.0             6.0
         1        15        25           320.0        100000.0           315.0             6.0
         1        16        25           320.0        100000.0           315.0             6.0
         1        17        25           320.0        100000.0           315.0             6.0
         1        18        25           320.0        100000.0           315.0             6.0
         1        19        25           320.0        100000.0           315.0             6.0
         1        20        25           320.0        100000.0           315.0             6.0
         1        21        25           320.0        100000.0           315.0             6.0
         1        22        25           320.0        100000.0           315.0             6.0
         1        23        25           320.0        100000.0           315.0             6.0
         1        24        25           320.0        100000.0           315.0             6.0
         1        25        25           320.0        100000.0           315.0             6.0
        25         0 # stress period 3
         1         1        25           320.0        100000.0           315.0             6.0
         1         2        25           320.0        100000.0           315.0             6.0
         1         3        25           320.0        100000.0           315.0             6.0
         1         4        25           320.0        100000.0           315.0             6.0
         1         5        25           320.0        100000.0           315.0             6.0
         1         6        25           320.0        100000.0           315.0             6.0
         1         7        25           320.0        100000.0           315.0             6.0
         1         8        25           320.0        100000.0           315.0             6.0
         1         9        25           320.0        100000.0           315.0             6.0
         1        10        25           320.0        100000.0           315.0             6.0
         1        11        25           320.0        100000.0           315.0             6.0
         1        12        25           320.0        100000.0           315.0             6.0
         1        13        25           320.0        100000.0           315.0             6.0
         1        14        25           320.0        100000.0           315.0             6.0
         1        15        25           320.0        100000.0           315.0             6.0
         1        16        25           320.0        100000.0           315.0             6.0
         1        17        25           320.0        100000.0           315.0             6.0
         1        18        25           320.0        100000.0           315.0             6.0
         1        19        25           320.0        100000.0           315.0             6.0
         1        20        25           320.0        100000.0           315.0             6.0
         1        21        25           320.0        100000.0           315.0             6.0
         1        22        25           320.0        100000.0           315.0             6.0
         1        23        25           320.0        100000.0           315.0             6.0
         1        24        25           320.0        100000.0           315.0             6.0
         1        25        25           320.0        100000.0           315.0             6.0
