# DIS package for MODFLOW-2005 generated by Flopy 3.9.1
         1        20        40         1         1         3
  0
CONSTANT    2.500000E-01                           #delr                          
CONSTANT    1.000000E+00                           #delc                          
CONSTANT    0.000000E+00                           #model_top                     
CONSTANT   -2.500000E-01                           #botm layer 1                  
   3660.000000             1  1.000000  SS
