# File generated by Flopy version 3.9.1 on 05/12/2025 at 08:29:20.
BEGIN options
  SAVE_FLOWS
END options

BEGIN packages
  DISV6  ex-gwf-disvmesh.disv  disv
  NPF6  ex-gwf-disvmesh.npf  npf
  IC6  ex-gwf-disvmesh.ic  ic
  GHB6  ex-gwf-disvmesh.ghb  ghb
  RCH6  ex-gwf-disvmesh.rch  rch
  OC6  ex-gwf-disvmesh.oc  oc
END packages

