# File generated by Flopy version 3.9.1 on 05/12/2025 at 08:29:20.
BEGIN options
  XT3D
  SAVE_SPECIFIC_DISCHARGE
END options

BEGIN griddata
  icelltype
    CONSTANT  0
  k
    CONSTANT      10.00000000
  k33
    CONSTANT       0.20000000
END griddata

