# File generated by Flopy version 3.9.1 on 05/12/2025 at 08:29:20.
BEGIN options
  TIME_UNITS  d
END options

BEGIN dimensions
  NPER  1
END dimensions

BEGIN perioddata
       1.00000000  1       1.00000000
END perioddata

