# File generated by Flopy version 3.9.1 on 05/12/2025 at 08:29:20.
BEGIN options
  BUDGET  FILEOUT  ex-gwf-disvmesh.cbc
  HEAD  FILEOUT  ex-gwf-disvmesh.hds
END options

BEGIN period  1
  SAVE  HEAD  ALL
  SAVE  BUDGET  ALL
END period  1

