# File generated by Flopy version 3.9.1 on 06/21/2025 at 17:10:27.
BEGIN options
END options

BEGIN timing
  TDIS6  ex-gwf-disvmesh.tdis
END timing

BEGIN models
  gwf6  ex-gwf-disvmesh.nam  ex-gwf-disvmesh
END models

BEGIN exchanges
END exchanges

BEGIN solutiongroup  1
  ims6  ex-gwf-disvmesh.ims  ex-gwf-disvmesh
END solutiongroup  1

