# File generated by Flopy version 3.10.0.dev3 on 06/16/2025 at 06:44:19.
BEGIN options
  PRINT_INPUT
  PRINT_FLOWS
  SAVE_FLOWS
END options

BEGIN dimensions
  MAXBOUND  40
END dimensions

BEGIN period  1
  1 29 15 1.37500000E+01 5.00000000E-02 1.30000000E+01
  1 30 15 1.35200000E+01 5.00000000E-02 1.27500000E+01
  1 31 15 1.32900000E+01 5.00000000E-02 1.25000000E+01
  1 32 15 1.30700000E+01 5.00000000E-02 1.22500000E+01
  1 33 15 1.28400000E+01 5.00000000E-02 1.20000000E+01
  1 34 15 1.26100000E+01 5.00000000E-02 1.17500000E+01
  1 35 15 1.23800000E+01 5.00000000E-02 1.15000000E+01
  1 36 15 1.21600000E+01 5.00000000E-02 1.12500000E+01
  1 37 15 1.19300000E+01 5.00000000E-02 1.10000000E+01
  1 38 15 1.17000000E+01 5.00000000E-02 1.07500000E+01
  1 39 15 1.14800000E+01 5.00000000E-02 1.05000000E+01
  1 40 15 1.12500000E+01 5.00000000E-02 1.02500000E+01
END period  1

