#GMS MODFLOW Simulation
#16 January 2025
FREE
HDF5 1.0 -1 "A.h5" "Arrays/ibound1" 1 0 800
-999.0
HDF5 1.0 -1 "A.h5" "Arrays/StartHead1" 1 0 800
