pcf
* control data
      restart   regularisation
           74           64            1          435            4
            1            1       single        point            1            0            0
  1.00000E-02  -3.0000      0.30000      3.00000E-02           10
   5.0000       5.0000      1.00000E-03
  0.10000    
            0  5.00000E-03            3            3  5.00000E-03            3
            1            1            1
* singular value decomposition
1
1000 1.0e-007
0
* parameter groups
 general      relative     1.00000E-02   0.0000         switch   2.0000     outside_pts
* parameter data
 hani_5011    log    factor      1.0000      0.10000       10.000          general   1.0000       0.0000       1
 vani_5021    log    factor      1.0000      0.10000       10.000          general   1.0000       0.0000       1
 ss_6011      log    factor     1.00000E-05  1.00000E-06  1.00000E-03      general   1.0000       0.0000       1
 sy_6021      log    factor     1.00000E-02  1.00000E-04  0.10000          general   1.0000       0.0000       1
 rch_7000     log    factor     1.38240E-04  1.38240E-05  1.38240E-03      general   1.0000       0.0000       1
 drn_1        log    factor      11.000       1.1000       110.00          general   1.0000       0.0000       1
 drn_2        log    factor      18.000       1.8000       180.00          general   1.0000       0.0000       1
 drn_3        log    factor      12.000       1.2000       120.00          general   1.0000       0.0000       1
 drn_4        log    factor      11.000       1.1000       110.00          general   1.0000       0.0000       1
 drn_5        log    factor      18.000       1.8000       180.00          general   1.0000       0.0000       1
 drn_6        log    factor      16.000       1.6000       160.00          general   1.0000       0.0000       1
 drn_7        log    factor      17.000       1.7000       170.00          general   1.0000       0.0000       1
 drn_8        log    factor      16.000       1.6000       160.00          general   1.0000       0.0000       1
 drn_9        log    factor      14.000       1.4000       140.00          general   1.0000       0.0000       1
 drn_10       log    factor      10.000       1.0000       100.00          general   1.0000       0.0000       1
 drn_11       log    factor      14.000       1.4000       140.00          general   1.0000       0.0000       1
 drn_12       log    factor      18.000       1.8000       180.00          general   1.0000       0.0000       1
 drn_13       log    factor      15.000       1.5000       150.00          general   1.0000       0.0000       1
 drn_14       log    factor      20.000       2.0000       200.00          general   1.0000       0.0000       1
 drn_15       log    factor      18.000       1.8000       180.00          general   1.0000       0.0000       1
 drn_16       log    factor      14.000       1.4000       140.00          general   1.0000       0.0000       1
 drn_17       log    factor      14.000       1.4000       140.00          general   1.0000       0.0000       1
 drn_18       log    factor      20.000       2.0000       200.00          general   1.0000       0.0000       1
 drn_19       log    factor      13.000       1.3000       130.00          general   1.0000       0.0000       1
 drn_20       log    factor      10.000       1.0000       100.00          general   1.0000       0.0000       1
 drn_21       log    factor      11.000       1.1000       110.00          general   1.0000       0.0000       1
 drn_22       log    factor      13.000       1.3000       130.00          general   1.0000       0.0000       1
 drn_23       log    factor      18.000       1.8000       180.00          general   1.0000       0.0000       1
 drn_24       log    factor      14.000       1.4000       140.00          general   1.0000       0.0000       1
 drn_25       log    factor      17.000       1.7000       170.00          general   1.0000       0.0000       1
 drn_26       log    factor      12.000       1.2000       120.00          general   1.0000       0.0000       1
 drn_27       log    factor      18.000       1.8000       180.00          general   1.0000       0.0000       1
 drn_28       log    factor      18.000       1.8000       180.00          general   1.0000       0.0000       1
 drn_29       log    factor      15.000       1.5000       150.00          general   1.0000       0.0000       1
 drn_30       log    factor      19.000       1.9000       190.00          general   1.0000       0.0000       1
 drn_31       log    factor      19.000       1.9000       190.00          general   1.0000       0.0000       1
 drn_32       log    factor      13.000       1.3000       130.00          general   1.0000       0.0000       1
 drn_33       log    factor      10.000       1.0000       100.00          general   1.0000       0.0000       1
 drn_34       log    factor      11.000       1.1000       110.00          general   1.0000       0.0000       1
 drn_35       log    factor      18.000       1.8000       180.00          general   1.0000       0.0000       1
 drn_36       log    factor      12.000       1.2000       120.00          general   1.0000       0.0000       1
 drn_37       log    factor      15.000       1.5000       150.00          general   1.0000       0.0000       1
 drn_38       log    factor      18.000       1.8000       180.00          general   1.0000       0.0000       1
 drn_39       log    factor      19.000       1.9000       190.00          general   1.0000       0.0000       1
 drn_40       log    factor      19.000       1.9000       190.00          general   1.0000       0.0000       1
 sc1v1        log    factor      5.0000      1.00000E-02   100.00          general   1.0000       0.0000       1
 sc1v2        log    factor      6.0000      1.00000E-02   100.00          general   1.0000       0.0000       1
 sc1v3        log    factor      5.0000      1.00000E-02   100.00          general   1.0000       0.0000       1
 sc1v4        log    factor      4.0000      1.00000E-02   100.00          general   1.0000       0.0000       1
 sc1v5        log    factor      5.0000      1.00000E-02   100.00          general   1.0000       0.0000       1
 sc1v6        log    factor      4.0000      1.00000E-02   100.00          general   1.0000       0.0000       1
 sc1v7        log    factor      4.0000      1.00000E-02   100.00          general   1.0000       0.0000       1
 sc1v8        log    factor      5.0000      1.00000E-02   100.00          general   1.0000       0.0000       1
 sc1v9        log    factor      6.0000      1.00000E-02   100.00          general   1.0000       0.0000       1
 sc1v10       log    factor      4.0000      1.00000E-02   100.00          general   1.0000       0.0000       1
 sc1v11       log    factor      4.0000      1.00000E-02   100.00          general   1.0000       0.0000       1
 sc1v12       log    factor      7.0000      1.00000E-02   100.00          general   1.0000       0.0000       1
 sc1v13       log    factor      5.0000      1.00000E-02   100.00          general   1.0000       0.0000       1
 sc1v14       log    factor      5.0000      1.00000E-02   100.00          general   1.0000       0.0000       1
 sc1v15       log    factor      4.0000      1.00000E-02   100.00          general   1.0000       0.0000       1
 sc1v16       log    factor      6.0000      1.00000E-02   100.00          general   1.0000       0.0000       1
 sc1v17       log    factor      4.0000      1.00000E-02   100.00          general   1.0000       0.0000       1
 sc1v18       log    factor      7.0000      1.00000E-02   100.00          general   1.0000       0.0000       1
 sc1v19       log    factor      6.0000      1.00000E-02   100.00          general   1.0000       0.0000       1
 sc1v20       log    factor      4.0000      1.00000E-02   100.00          general   1.0000       0.0000       1
 sc1v21       log    factor      4.0000      1.00000E-02   100.00          general   1.0000       0.0000       1
 sc1v22       log    factor      5.0000      1.00000E-02   100.00          general   1.0000       0.0000       1
 sc1v23       log    factor      6.0000      1.00000E-02   100.00          general   1.0000       0.0000       1
 sc1v24       log    factor      5.0000      1.00000E-02   100.00          general   1.0000       0.0000       1
 sc1v25       log    factor      5.0000      1.00000E-02   100.00          general   1.0000       0.0000       1
 sc1v26       log    factor      4.0000      1.00000E-02   100.00          general   1.0000       0.0000       1
 sc1v27       log    factor      6.0000      1.00000E-02   100.00          general   1.0000       0.0000       1
 sc1v28       log    factor      6.0000      1.00000E-02   100.00          general   1.0000       0.0000       1
 sc1v29       log    factor      7.0000      1.00000E-02   100.00          general   1.0000       0.0000       1
* observation groups
 head
 drain
 const_head
 regul_1
* observation data
 hed1           29.0000        1.95998      head
 hed2           27.0000        1.95998      head
 hed3           29.0000        1.95998      head
 hed4           27.0000        1.95998      head
 hed5           27.0000        1.95998      head
 hed6           27.0000        1.95998      head
 hed7           27.0000        1.95998      head
 hed8           28.0000        1.95998      head
 hed9           27.0000        1.95998      head
 hed10          26.0000        1.95998      head
 hed11          26.0000        1.95998      head
 hed12          26.0000        1.95998      head
 hed13          28.0000        1.95998      head
 dr0            0.00000        1.95998      drain
 dr1            0.00000        1.95998      drain
 dr2            0.00000        1.95998      drain
 dr3            0.00000        1.95998      drain
 dr4            0.00000        1.95998      drain
 dr5            0.00000        1.95998      drain
 dr6            0.00000        1.95998      drain
 dr7            0.00000        1.95998      drain
 dr8            0.00000        1.95998      drain
 dr9            0.00000        1.95998      drain
 dr10           0.00000        1.95998      drain
 dr11           0.00000        1.95998      drain
 dr12           0.00000        1.95998      drain
 dr13           0.00000        1.95998      drain
 dr14           0.00000        1.95998      drain
 dr15           0.00000        1.95998      drain
 dr16           0.00000        1.95998      drain
 dr17           0.00000        1.95998      drain
 dr18           0.00000        1.95998      drain
 dr19           0.00000        1.95998      drain
 dr20           0.00000        1.95998      drain
 dr21           0.00000        1.95998      drain
 dr22           0.00000        1.95998      drain
 dr23           0.00000        1.95998      drain
 dr24           0.00000        1.95998      drain
 dr25           0.00000        1.95998      drain
 dr26           0.00000        1.95998      drain
 dr27           0.00000        1.95998      drain
 dr28           0.00000        1.95998      drain
 dr29           0.00000        1.95998      drain
 dr30           0.00000        1.95998      drain
 dr31           0.00000        1.95998      drain
 dr32           0.00000        1.95998      drain
 dr33           0.00000        1.95998      drain
 dr34           0.00000        1.95998      drain
 dr35           0.00000        1.95998      drain
 dr36           0.00000        1.95998      drain
 dr37           0.00000        1.95998      drain
 dr38           0.00000        1.95998      drain
 dr39           0.00000        1.95998      drain
 ch0            0.00000        1.95998      const_head
 ch1            0.00000        1.95998      const_head
 ch2            0.00000        1.95998      const_head
 ch3            0.00000        1.95998      const_head
 ch4            0.00000        1.95998      const_head
 ch5            0.00000        1.95998      const_head
 ch6            0.00000        1.95998      const_head
 ch7            0.00000        1.95998      const_head
 ch8            0.00000        1.95998      const_head
 ch9            0.00000        1.95998      const_head
 ch10           0.00000        1.95998      const_head
* model command line
 A_bat1.bat
* model input/output
 A.tpl_1 A.snn_1
 A.ins A._os
* prior information
 pi0 1.0 * log(sc1v1) - 1.0 * log(sc1v2) = 0.0 0.0065887695011 regul_1
 pi1 1.0 * log(sc1v1) - 1.0 * log(sc1v3) = 0.0 0.001186868348 regul_1
 pi2 1.0 * log(sc1v1) - 1.0 * log(sc1v4) = 0.0 0.0003563606841 regul_1
 pi3 1.0 * log(sc1v1) - 1.0 * log(sc1v5) = 0.0 0.0065887743553 regul_1
 pi4 1.0 * log(sc1v1) - 1.0 * log(sc1v6) = 0.0 0.0028947769175 regul_1
 pi5 1.0 * log(sc1v1) - 1.0 * log(sc1v7) = 0.0 0.0008713453056 regul_1
 pi6 1.0 * log(sc1v1) - 1.0 * log(sc1v8) = 0.0 0.0002985695172 regul_1
 pi7 1.0 * log(sc1v1) - 1.0 * log(sc1v9) = 0.0 0.0011868680905 regul_1
 pi8 1.0 * log(sc1v1) - 1.0 * log(sc1v10) = 0.0 0.0004312638209 regul_1
 pi9 1.0 * log(sc1v1) - 1.0 * log(sc1v11) = 0.0 0.0001862245121 regul_1
 pi10 1.0 * log(sc1v1) - 1.0 * log(sc1v12) = 0.0 0.0003563605587 regul_1
 pi11 1.0 * log(sc1v1) - 1.0 * log(sc1v13) = 0.0 0.0001862245295 regul_1
 pi12 1.0 * log(sc1v1) - 1.0 * log(sc1v14) = 0.0 0.0000951563395 regul_1
 pi13 1.0 * log(sc1v1) - 1.0 * log(sc1v15) = 0.0 0.0001230058509 regul_1
 pi14 1.0 * log(sc1v1) - 1.0 * log(sc1v16) = 0.0 0.0001080211941 regul_1
 pi15 1.0 * log(sc1v1) - 1.0 * log(sc1v17) = 0.0 0.000074383781 regul_1
 pi16 1.0 * log(sc1v1) - 1.0 * log(sc1v18) = 0.0 0.0000412005929 regul_1
 pi17 1.0 * log(sc1v1) - 1.0 * log(sc1v19) = 0.0 0.0000412006021 regul_1
 pi18 1.0 * log(sc1v1) - 1.0 * log(sc1v20) = 0.0 0.0000366734257 regul_1
 pi19 1.0 * log(sc1v1) - 1.0 * log(sc1v21) = 0.0 0.0000258280769 regul_1
 pi20 1.0 * log(sc1v1) - 1.0 * log(sc1v22) = 0.0 0.0000141043803 regul_1
 pi21 1.0 * log(sc1v1) - 1.0 * log(sc1v23) = 0.0 0.0000109169598 regul_1
 pi22 1.0 * log(sc1v1) - 1.0 * log(sc1v24) = 0.0 9.56163323e-006 regul_1
 pi23 1.0 * log(sc1v1) - 1.0 * log(sc1v25) = 0.0 6.2745492e-006 regul_1
 pi24 1.0 * log(sc1v1) - 1.0 * log(sc1v26) = 0.0 2.75543693e-006 regul_1
 pi25 1.0 * log(sc1v1) - 1.0 * log(sc1v27) = 0.0 8.93298874e-007 regul_1
 pi26 1.0 * log(sc1v1) - 1.0 * log(sc1v28) = 0.0 3.20018701e-007 regul_1
 pi27 1.0 * log(sc1v1) - 1.0 * log(sc1v29) = 0.0 0.0 regul_1
 pi28 1.0 * log(sc1v2) - 1.0 * log(sc1v3) = 0.0 0.0065887695011 regul_1
 pi29 1.0 * log(sc1v2) - 1.0 * log(sc1v4) = 0.0 0.0011868673179 regul_1
 pi30 1.0 * log(sc1v2) - 1.0 * log(sc1v5) = 0.0 0.0028947769175 regul_1
 pi31 1.0 * log(sc1v2) - 1.0 * log(sc1v6) = 0.0 0.0065887549386 regul_1
 pi32 1.0 * log(sc1v2) - 1.0 * log(sc1v7) = 0.0 0.0028947735048 regul_1
 pi33 1.0 * log(sc1v2) - 1.0 * log(sc1v8) = 0.0 0.0008713453056 regul_1
 pi34 1.0 * log(sc1v2) - 1.0 * log(sc1v9) = 0.0 0.0008713454635 regul_1
 pi35 1.0 * log(sc1v2) - 1.0 * log(sc1v10) = 0.0 0.0008713448319 regul_1
 pi36 1.0 * log(sc1v2) - 1.0 * log(sc1v11) = 0.0 0.0004312636562 regul_1
 pi37 1.0 * log(sc1v2) - 1.0 * log(sc1v12) = 0.0 0.0002985694845 regul_1
 pi38 1.0 * log(sc1v2) - 1.0 * log(sc1v13) = 0.0 0.0002985694845 regul_1
 pi39 1.0 * log(sc1v2) - 1.0 * log(sc1v14) = 0.0 0.0001862245121 regul_1
 pi40 1.0 * log(sc1v2) - 1.0 * log(sc1v15) = 0.0 0.0001080211675 regul_1
 pi41 1.0 * log(sc1v2) - 1.0 * log(sc1v16) = 0.0 0.0001230058612 regul_1
 pi42 1.0 * log(sc1v2) - 1.0 * log(sc1v17) = 0.0 0.0001080211675 regul_1
 pi43 1.0 * log(sc1v2) - 1.0 * log(sc1v18) = 0.0 0.000074383781 regul_1
 pi44 1.0 * log(sc1v2) - 1.0 * log(sc1v19) = 0.0 0.0000366734285 regul_1
 pi45 1.0 * log(sc1v2) - 1.0 * log(sc1v20) = 0.0 0.0000412005929 regul_1
 pi46 1.0 * log(sc1v2) - 1.0 * log(sc1v21) = 0.0 0.0000366734175 regul_1
 pi47 1.0 * log(sc1v2) - 1.0 * log(sc1v22) = 0.0 0.0000258280769 regul_1
 pi48 1.0 * log(sc1v2) - 1.0 * log(sc1v23) = 0.0 9.56163323e-006 regul_1
 pi49 1.0 * log(sc1v2) - 1.0 * log(sc1v24) = 0.0 0.0000109169598 regul_1
 pi50 1.0 * log(sc1v2) - 1.0 * log(sc1v25) = 0.0 9.56163241e-006 regul_1
 pi51 1.0 * log(sc1v2) - 1.0 * log(sc1v26) = 0.0 6.27454683e-006 regul_1
 pi52 1.0 * log(sc1v2) - 1.0 * log(sc1v27) = 0.0 1.16490095e-006 regul_1
 pi53 1.0 * log(sc1v2) - 1.0 * log(sc1v28) = 0.0 8.93299033e-007 regul_1
 pi54 1.0 * log(sc1v2) - 1.0 * log(sc1v29) = 0.0 3.20018701e-007 regul_1
 pi55 1.0 * log(sc1v3) - 1.0 * log(sc1v4) = 0.0 0.0065887695011 regul_1
 pi56 1.0 * log(sc1v3) - 1.0 * log(sc1v5) = 0.0 0.0008713454635 regul_1
 pi57 1.0 * log(sc1v3) - 1.0 * log(sc1v6) = 0.0 0.0028947769175 regul_1
 pi58 1.0 * log(sc1v3) - 1.0 * log(sc1v7) = 0.0 0.0065887695011 regul_1
 pi59 1.0 * log(sc1v3) - 1.0 * log(sc1v8) = 0.0 0.002894778055 regul_1
 pi60 1.0 * log(sc1v3) - 1.0 * log(sc1v9) = 0.0 0.0004312638209 regul_1
 pi61 1.0 * log(sc1v3) - 1.0 * log(sc1v10) = 0.0 0.0011868680905 regul_1
 pi62 1.0 * log(sc1v3) - 1.0 * log(sc1v11) = 0.0 0.0008713453056 regul_1
 pi63 1.0 * log(sc1v3) - 1.0 * log(sc1v12) = 0.0 0.0001862244599 regul_1
 pi64 1.0 * log(sc1v3) - 1.0 * log(sc1v13) = 0.0 0.0003563607259 regul_1
 pi65 1.0 * log(sc1v3) - 1.0 * log(sc1v14) = 0.0 0.0002985695172 regul_1
 pi66 1.0 * log(sc1v3) - 1.0 * log(sc1v15) = 0.0 0.000074383781 regul_1
 pi67 1.0 * log(sc1v3) - 1.0 * log(sc1v16) = 0.0 0.0001080211941 regul_1
 pi68 1.0 * log(sc1v3) - 1.0 * log(sc1v17) = 0.0 0.0001230058509 regul_1
 pi69 1.0 * log(sc1v3) - 1.0 * log(sc1v18) = 0.0 0.0001080211675 regul_1
 pi70 1.0 * log(sc1v3) - 1.0 * log(sc1v19) = 0.0 0.0000258280769 regul_1
 pi71 1.0 * log(sc1v3) - 1.0 * log(sc1v20) = 0.0 0.0000366734257 regul_1
 pi72 1.0 * log(sc1v3) - 1.0 * log(sc1v21) = 0.0 0.0000412006021 regul_1
 pi73 1.0 * log(sc1v3) - 1.0 * log(sc1v22) = 0.0 0.0000366734285 regul_1
 pi74 1.0 * log(sc1v3) - 1.0 * log(sc1v23) = 0.0 6.2745486e-006 regul_1
 pi75 1.0 * log(sc1v3) - 1.0 * log(sc1v24) = 0.0 9.56163323e-006 regul_1
 pi76 1.0 * log(sc1v3) - 1.0 * log(sc1v25) = 0.0 0.0000109169607 regul_1
 pi77 1.0 * log(sc1v3) - 1.0 * log(sc1v26) = 0.0 9.56163241e-006 regul_1
 pi78 1.0 * log(sc1v3) - 1.0 * log(sc1v27) = 0.0 8.93298874e-007 regul_1
 pi79 1.0 * log(sc1v3) - 1.0 * log(sc1v28) = 0.0 1.16490076e-006 regul_1
 pi80 1.0 * log(sc1v3) - 1.0 * log(sc1v29) = 0.0 8.93298394e-007 regul_1
 pi81 1.0 * log(sc1v4) - 1.0 * log(sc1v5) = 0.0 0.0002985694845 regul_1
 pi82 1.0 * log(sc1v4) - 1.0 * log(sc1v6) = 0.0 0.0008713454635 regul_1
 pi83 1.0 * log(sc1v4) - 1.0 * log(sc1v7) = 0.0 0.002894778055 regul_1
 pi84 1.0 * log(sc1v4) - 1.0 * log(sc1v8) = 0.0 0.0065887695011 regul_1
 pi85 1.0 * log(sc1v4) - 1.0 * log(sc1v9) = 0.0 0.0001862244599 regul_1
 pi86 1.0 * log(sc1v4) - 1.0 * log(sc1v10) = 0.0 0.0008713454635 regul_1
 pi87 1.0 * log(sc1v4) - 1.0 * log(sc1v11) = 0.0 0.001186868348 regul_1
 pi88 1.0 * log(sc1v4) - 1.0 * log(sc1v12) = 0.0 0.0000951562708 regul_1
 pi89 1.0 * log(sc1v4) - 1.0 * log(sc1v13) = 0.0 0.0002985694845 regul_1
 pi90 1.0 * log(sc1v4) - 1.0 * log(sc1v14) = 0.0 0.0003563606841 regul_1
 pi91 1.0 * log(sc1v4) - 1.0 * log(sc1v15) = 0.0 0.0000412006052 regul_1
 pi92 1.0 * log(sc1v4) - 1.0 * log(sc1v16) = 0.0 0.0000743837637 regul_1
 pi93 1.0 * log(sc1v4) - 1.0 * log(sc1v17) = 0.0 0.000108021203 regul_1
 pi94 1.0 * log(sc1v4) - 1.0 * log(sc1v18) = 0.0 0.0001230057679 regul_1
 pi95 1.0 * log(sc1v4) - 1.0 * log(sc1v19) = 0.0 0.0000141043758 regul_1
 pi96 1.0 * log(sc1v4) - 1.0 * log(sc1v20) = 0.0 0.0000258280788 regul_1
 pi97 1.0 * log(sc1v4) - 1.0 * log(sc1v21) = 0.0 0.0000366734285 regul_1
 pi98 1.0 * log(sc1v4) - 1.0 * log(sc1v22) = 0.0 0.0000412006021 regul_1
 pi99 1.0 * log(sc1v4) - 1.0 * log(sc1v23) = 0.0 2.75543595e-006 regul_1
 pi100 1.0 * log(sc1v4) - 1.0 * log(sc1v24) = 0.0 6.2745486e-006 regul_1
 pi101 1.0 * log(sc1v4) - 1.0 * log(sc1v25) = 0.0 9.56163241e-006 regul_1
 pi102 1.0 * log(sc1v4) - 1.0 * log(sc1v26) = 0.0 0.0000109169607 regul_1
 pi103 1.0 * log(sc1v4) - 1.0 * log(sc1v27) = 0.0 3.20018438e-007 regul_1
 pi104 1.0 * log(sc1v4) - 1.0 * log(sc1v28) = 0.0 8.93298394e-007 regul_1
 pi105 1.0 * log(sc1v4) - 1.0 * log(sc1v29) = 0.0 1.16489926e-006 regul_1
 pi106 1.0 * log(sc1v5) - 1.0 * log(sc1v6) = 0.0 0.0065887695011 regul_1
 pi107 1.0 * log(sc1v5) - 1.0 * log(sc1v7) = 0.0 0.0011868680905 regul_1
 pi108 1.0 * log(sc1v5) - 1.0 * log(sc1v8) = 0.0 0.0003563607259 regul_1
 pi109 1.0 * log(sc1v5) - 1.0 * log(sc1v9) = 0.0 0.0065887695011 regul_1
 pi110 1.0 * log(sc1v5) - 1.0 * log(sc1v10) = 0.0 0.0008713453056 regul_1
 pi111 1.0 * log(sc1v5) - 1.0 * log(sc1v11) = 0.0 0.0002985694845 regul_1
 pi112 1.0 * log(sc1v5) - 1.0 * log(sc1v12) = 0.0 0.0011868673179 regul_1
 pi113 1.0 * log(sc1v5) - 1.0 * log(sc1v13) = 0.0 0.0004312638758 regul_1
 pi114 1.0 * log(sc1v5) - 1.0 * log(sc1v14) = 0.0 0.0001862245295 regul_1
 pi115 1.0 * log(sc1v5) - 1.0 * log(sc1v15) = 0.0 0.0003563606841 regul_1
 pi116 1.0 * log(sc1v5) - 1.0 * log(sc1v16) = 0.0 0.0002985694845 regul_1
 pi117 1.0 * log(sc1v5) - 1.0 * log(sc1v17) = 0.0 0.0001862245121 regul_1
 pi118 1.0 * log(sc1v5) - 1.0 * log(sc1v18) = 0.0 0.000095156309 regul_1
 pi119 1.0 * log(sc1v5) - 1.0 * log(sc1v19) = 0.0 0.0001230058509 regul_1
 pi120 1.0 * log(sc1v5) - 1.0 * log(sc1v20) = 0.0 0.0001080211941 regul_1
 pi121 1.0 * log(sc1v5) - 1.0 * log(sc1v21) = 0.0 0.000074383781 regul_1
 pi122 1.0 * log(sc1v5) - 1.0 * log(sc1v22) = 0.0 0.0000412006052 regul_1
 pi123 1.0 * log(sc1v5) - 1.0 * log(sc1v23) = 0.0 0.0000412006021 regul_1
 pi124 1.0 * log(sc1v5) - 1.0 * log(sc1v24) = 0.0 0.0000366734285 regul_1
 pi125 1.0 * log(sc1v5) - 1.0 * log(sc1v25) = 0.0 0.0000258280788 regul_1
 pi126 1.0 * log(sc1v5) - 1.0 * log(sc1v26) = 0.0 0.0000141043792 regul_1
 pi127 1.0 * log(sc1v5) - 1.0 * log(sc1v27) = 0.0 9.56163241e-006 regul_1
 pi128 1.0 * log(sc1v5) - 1.0 * log(sc1v28) = 0.0 6.2745486e-006 regul_1
 pi129 1.0 * log(sc1v5) - 1.0 * log(sc1v29) = 0.0 2.75543595e-006 regul_1
 pi130 1.0 * log(sc1v6) - 1.0 * log(sc1v7) = 0.0 0.0065887743553 regul_1
 pi131 1.0 * log(sc1v6) - 1.0 * log(sc1v8) = 0.0 0.0011868680905 regul_1
 pi132 1.0 * log(sc1v6) - 1.0 * log(sc1v9) = 0.0 0.0028947735048 regul_1
 pi133 1.0 * log(sc1v6) - 1.0 * log(sc1v10) = 0.0 0.002894778055 regul_1
 pi134 1.0 * log(sc1v6) - 1.0 * log(sc1v11) = 0.0 0.0008713454635 regul_1
 pi135 1.0 * log(sc1v6) - 1.0 * log(sc1v12) = 0.0 0.0008713440425 regul_1
 pi136 1.0 * log(sc1v6) - 1.0 * log(sc1v13) = 0.0 0.0008713453056 regul_1
 pi137 1.0 * log(sc1v6) - 1.0 * log(sc1v14) = 0.0 0.0004312638209 regul_1
 pi138 1.0 * log(sc1v6) - 1.0 * log(sc1v15) = 0.0 0.0002985695172 regul_1
 pi139 1.0 * log(sc1v6) - 1.0 * log(sc1v16) = 0.0 0.0003563605587 regul_1
 pi140 1.0 * log(sc1v6) - 1.0 * log(sc1v17) = 0.0 0.0002985695172 regul_1
 pi141 1.0 * log(sc1v6) - 1.0 * log(sc1v18) = 0.0 0.0001862243728 regul_1
 pi142 1.0 * log(sc1v6) - 1.0 * log(sc1v19) = 0.0 0.0001080211675 regul_1
 pi143 1.0 * log(sc1v6) - 1.0 * log(sc1v20) = 0.0 0.0001230058612 regul_1
 pi144 1.0 * log(sc1v6) - 1.0 * log(sc1v21) = 0.0 0.000108021203 regul_1
 pi145 1.0 * log(sc1v6) - 1.0 * log(sc1v22) = 0.0 0.000074383781 regul_1
 pi146 1.0 * log(sc1v6) - 1.0 * log(sc1v23) = 0.0 0.0000366734175 regul_1
 pi147 1.0 * log(sc1v6) - 1.0 * log(sc1v24) = 0.0 0.0000412006021 regul_1
 pi148 1.0 * log(sc1v6) - 1.0 * log(sc1v25) = 0.0 0.0000366734257 regul_1
 pi149 1.0 * log(sc1v6) - 1.0 * log(sc1v26) = 0.0 0.0000258280788 regul_1
 pi150 1.0 * log(sc1v6) - 1.0 * log(sc1v27) = 0.0 0.0000109169571 regul_1
 pi151 1.0 * log(sc1v6) - 1.0 * log(sc1v28) = 0.0 9.56162995e-006 regul_1
 pi152 1.0 * log(sc1v6) - 1.0 * log(sc1v29) = 0.0 6.27454387e-006 regul_1
 pi153 1.0 * log(sc1v7) - 1.0 * log(sc1v8) = 0.0 0.0065887695011 regul_1
 pi154 1.0 * log(sc1v7) - 1.0 * log(sc1v9) = 0.0 0.0008713448319 regul_1
 pi155 1.0 * log(sc1v7) - 1.0 * log(sc1v10) = 0.0 0.0065887743553 regul_1
 pi156 1.0 * log(sc1v7) - 1.0 * log(sc1v11) = 0.0 0.002894778055 regul_1
 pi157 1.0 * log(sc1v7) - 1.0 * log(sc1v12) = 0.0 0.0004312633818 regul_1
 pi158 1.0 * log(sc1v7) - 1.0 * log(sc1v13) = 0.0 0.0011868680905 regul_1
 pi159 1.0 * log(sc1v7) - 1.0 * log(sc1v14) = 0.0 0.0008713453056 regul_1
 pi160 1.0 * log(sc1v7) - 1.0 * log(sc1v15) = 0.0 0.0001862245295 regul_1
 pi161 1.0 * log(sc1v7) - 1.0 * log(sc1v16) = 0.0 0.0002985693865 regul_1
 pi162 1.0 * log(sc1v7) - 1.0 * log(sc1v17) = 0.0 0.0003563607259 regul_1
 pi163 1.0 * log(sc1v7) - 1.0 * log(sc1v18) = 0.0 0.0002985692231 regul_1
 pi164 1.0 * log(sc1v7) - 1.0 * log(sc1v19) = 0.0 0.0000743837637 regul_1
 pi165 1.0 * log(sc1v7) - 1.0 * log(sc1v20) = 0.0 0.000108021203 regul_1
 pi166 1.0 * log(sc1v7) - 1.0 * log(sc1v21) = 0.0 0.0001230058612 regul_1
 pi167 1.0 * log(sc1v7) - 1.0 * log(sc1v22) = 0.0 0.0001080211941 regul_1
 pi168 1.0 * log(sc1v7) - 1.0 * log(sc1v23) = 0.0 0.000025828071 regul_1
 pi169 1.0 * log(sc1v7) - 1.0 * log(sc1v24) = 0.0 0.0000366734257 regul_1
 pi170 1.0 * log(sc1v7) - 1.0 * log(sc1v25) = 0.0 0.0000412006021 regul_1
 pi171 1.0 * log(sc1v7) - 1.0 * log(sc1v26) = 0.0 0.0000366734285 regul_1
 pi172 1.0 * log(sc1v7) - 1.0 * log(sc1v27) = 0.0 9.56162995e-006 regul_1
 pi173 1.0 * log(sc1v7) - 1.0 * log(sc1v28) = 0.0 0.0000109169571 regul_1
 pi174 1.0 * log(sc1v7) - 1.0 * log(sc1v29) = 0.0 9.56162584e-006 regul_1
 pi175 1.0 * log(sc1v8) - 1.0 * log(sc1v9) = 0.0 0.0002985694845 regul_1
 pi176 1.0 * log(sc1v8) - 1.0 * log(sc1v10) = 0.0 0.0028947769175 regul_1
 pi177 1.0 * log(sc1v8) - 1.0 * log(sc1v11) = 0.0 0.0065887695011 regul_1
 pi178 1.0 * log(sc1v8) - 1.0 * log(sc1v12) = 0.0 0.0001862244599 regul_1
 pi179 1.0 * log(sc1v8) - 1.0 * log(sc1v13) = 0.0 0.0008713454635 regul_1
 pi180 1.0 * log(sc1v8) - 1.0 * log(sc1v14) = 0.0 0.001186868348 regul_1
 pi181 1.0 * log(sc1v8) - 1.0 * log(sc1v15) = 0.0 0.0000951563319 regul_1
 pi182 1.0 * log(sc1v8) - 1.0 * log(sc1v16) = 0.0 0.0001862245121 regul_1
 pi183 1.0 * log(sc1v8) - 1.0 * log(sc1v17) = 0.0 0.0002985694845 regul_1
 pi184 1.0 * log(sc1v8) - 1.0 * log(sc1v18) = 0.0 0.0003563605587 regul_1
 pi185 1.0 * log(sc1v8) - 1.0 * log(sc1v19) = 0.0 0.0000412006021 regul_1
 pi186 1.0 * log(sc1v8) - 1.0 * log(sc1v20) = 0.0 0.000074383781 regul_1
 pi187 1.0 * log(sc1v8) - 1.0 * log(sc1v21) = 0.0 0.0001080211941 regul_1
 pi188 1.0 * log(sc1v8) - 1.0 * log(sc1v22) = 0.0 0.0001230058612 regul_1
 pi189 1.0 * log(sc1v8) - 1.0 * log(sc1v23) = 0.0 0.0000141043792 regul_1
 pi190 1.0 * log(sc1v8) - 1.0 * log(sc1v24) = 0.0 0.0000258280788 regul_1
 pi191 1.0 * log(sc1v8) - 1.0 * log(sc1v25) = 0.0 0.0000366734285 regul_1
 pi192 1.0 * log(sc1v8) - 1.0 * log(sc1v26) = 0.0 0.0000412006021 regul_1
 pi193 1.0 * log(sc1v8) - 1.0 * log(sc1v27) = 0.0 6.2745486e-006 regul_1
 pi194 1.0 * log(sc1v8) - 1.0 * log(sc1v28) = 0.0 9.56163241e-006 regul_1
 pi195 1.0 * log(sc1v8) - 1.0 * log(sc1v29) = 0.0 0.0000109169571 regul_1
 pi196 1.0 * log(sc1v9) - 1.0 * log(sc1v10) = 0.0 0.0011868673179 regul_1
 pi197 1.0 * log(sc1v9) - 1.0 * log(sc1v11) = 0.0 0.0003563605587 regul_1
 pi198 1.0 * log(sc1v9) - 1.0 * log(sc1v12) = 0.0 0.0065887695011 regul_1
 pi199 1.0 * log(sc1v9) - 1.0 * log(sc1v13) = 0.0 0.0008713453056 regul_1
 pi200 1.0 * log(sc1v9) - 1.0 * log(sc1v14) = 0.0 0.0002985694845 regul_1
 pi201 1.0 * log(sc1v9) - 1.0 * log(sc1v15) = 0.0 0.0011868673179 regul_1
 pi202 1.0 * log(sc1v9) - 1.0 * log(sc1v16) = 0.0 0.0008713454635 regul_1
 pi203 1.0 * log(sc1v9) - 1.0 * log(sc1v17) = 0.0 0.0004312636562 regul_1
 pi204 1.0 * log(sc1v9) - 1.0 * log(sc1v18) = 0.0 0.0001862245121 regul_1
 pi205 1.0 * log(sc1v9) - 1.0 * log(sc1v19) = 0.0 0.0003563607259 regul_1
 pi206 1.0 * log(sc1v9) - 1.0 * log(sc1v20) = 0.0 0.0002985693865 regul_1
 pi207 1.0 * log(sc1v9) - 1.0 * log(sc1v21) = 0.0 0.0001862244599 regul_1
 pi208 1.0 * log(sc1v9) - 1.0 * log(sc1v22) = 0.0 0.0000951563319 regul_1
 pi209 1.0 * log(sc1v9) - 1.0 * log(sc1v23) = 0.0 0.0001230058612 regul_1
 pi210 1.0 * log(sc1v9) - 1.0 * log(sc1v24) = 0.0 0.0001080211941 regul_1
 pi211 1.0 * log(sc1v9) - 1.0 * log(sc1v25) = 0.0 0.000074383781 regul_1
 pi212 1.0 * log(sc1v9) - 1.0 * log(sc1v26) = 0.0 0.0000412005929 regul_1
 pi213 1.0 * log(sc1v9) - 1.0 * log(sc1v27) = 0.0 0.0000366734285 regul_1
 pi214 1.0 * log(sc1v9) - 1.0 * log(sc1v28) = 0.0 0.0000258280788 regul_1
 pi215 1.0 * log(sc1v9) - 1.0 * log(sc1v29) = 0.0 0.0000141043792 regul_1
 pi216 1.0 * log(sc1v10) - 1.0 * log(sc1v11) = 0.0 0.0065887743553 regul_1
 pi217 1.0 * log(sc1v10) - 1.0 * log(sc1v12) = 0.0 0.0008713440425 regul_1
 pi218 1.0 * log(sc1v10) - 1.0 * log(sc1v13) = 0.0 0.0065887695011 regul_1
 pi219 1.0 * log(sc1v10) - 1.0 * log(sc1v14) = 0.0 0.0028947769175 regul_1
 pi220 1.0 * log(sc1v10) - 1.0 * log(sc1v15) = 0.0 0.0004312638758 regul_1
 pi221 1.0 * log(sc1v10) - 1.0 * log(sc1v16) = 0.0 0.0008713448319 regul_1
 pi222 1.0 * log(sc1v10) - 1.0 * log(sc1v17) = 0.0 0.001186868348 regul_1
 pi223 1.0 * log(sc1v10) - 1.0 * log(sc1v18) = 0.0 0.0008713440425 regul_1
 pi224 1.0 * log(sc1v10) - 1.0 * log(sc1v19) = 0.0 0.0001862244599 regul_1
 pi225 1.0 * log(sc1v10) - 1.0 * log(sc1v20) = 0.0 0.0002985695172 regul_1
 pi226 1.0 * log(sc1v10) - 1.0 * log(sc1v21) = 0.0 0.0003563607259 regul_1
 pi227 1.0 * log(sc1v10) - 1.0 * log(sc1v22) = 0.0 0.0002985694845 regul_1
 pi228 1.0 * log(sc1v10) - 1.0 * log(sc1v23) = 0.0 0.0000743837637 regul_1
 pi229 1.0 * log(sc1v10) - 1.0 * log(sc1v24) = 0.0 0.0001080211941 regul_1
 pi230 1.0 * log(sc1v10) - 1.0 * log(sc1v25) = 0.0 0.0001230058509 regul_1
 pi231 1.0 * log(sc1v10) - 1.0 * log(sc1v26) = 0.0 0.000108021203 regul_1
 pi232 1.0 * log(sc1v10) - 1.0 * log(sc1v27) = 0.0 0.0000366734175 regul_1
 pi233 1.0 * log(sc1v10) - 1.0 * log(sc1v28) = 0.0 0.0000412005929 regul_1
 pi234 1.0 * log(sc1v10) - 1.0 * log(sc1v29) = 0.0 0.0000366734039 regul_1
 pi235 1.0 * log(sc1v11) - 1.0 * log(sc1v12) = 0.0 0.0002985692231 regul_1
 pi236 1.0 * log(sc1v11) - 1.0 * log(sc1v13) = 0.0 0.0028947769175 regul_1
 pi237 1.0 * log(sc1v11) - 1.0 * log(sc1v14) = 0.0 0.0065887695011 regul_1
 pi238 1.0 * log(sc1v11) - 1.0 * log(sc1v15) = 0.0 0.0001862245295 regul_1