# File generated by Flopy version 3.8.2 on 01/20/2025 at 13:36:12.
BEGIN options
  PRINT_FLOWS
  SAVE_FLOWS
END options

BEGIN packages
  ic6  symp01.ic  ic
  dis6  symp01.dis  dis
  npf6  symp01.npf  npf
  rch6  symp01.rcha  rch
  riv6  symp01.riv  riv_0
  oc6  symp01.oc  oc
END packages

