# Name file for MODFLOW-2005, generated by Flopy version 3.9.1.
#xll:0.0; yll:0.0; rotation:0.0; units:meters; lenuni:2; start_datetime:1-1-1970
LIST               2  mf06_mf.list
DIS               11  mf06_mf.dis
BAS6              13  mf06_mf.bas
LPF               15  mf06_mf.lpf
WEL               20  mf06_mf.wel
PCG               27  mf06_mf.pcg
LMT6              30  mf06_mf.lmt6
OC                14  mf06_mf.oc
DATA(BINARY)      51  mf06_mf.hds REPLACE
