# File generated by Flopy version 3.9.1 on 05/30/2025 at 11:24:49.
BEGIN options
  BUDGET  FILEOUT  child.cbc
  HEAD  FILEOUT  child.hds
END options

BEGIN period  1
  SAVE  HEAD  ALL
  SAVE  BUDGET  ALL
END period  1

