# File generated by Flopy version 3.9.1 on 06/03/2025 at 08:25:49.
BEGIN options
  READASARRAYS
END options

BEGIN period  1
  recharge
    CONSTANT  1.10980000E-09
END period  1

