# File generated by Flopy version 3.9.1 on 06/21/2025 at 17:15:47.
BEGIN options
  READASARRAYS
END options

BEGIN period  1
  recharge
    CONSTANT  1.10980000E-09
END period  1

