# File generated by Flopy version 3.9.1 on 06/03/2025 at 08:25:47.
BEGIN options
  auxiliary  angldegx  cdist
END options

BEGIN dimensions
  NEXG  6300
END dimensions

BEGIN exchangedata
  1 20 15  1 1 1  1      52.50000000      17.50000000      25.00000000       0.00000000      74.33034374
  1 19 16  1 1 1  1      37.50000000      12.50000000      35.00000000     270.00000000      61.03277808
  1 19 16  1 1 2  1      37.50000000      12.50000000      35.00000000     270.00000000      50.00000000
  1 19 16  1 1 3  1      37.50000000      12.50000000      35.00000000     270.00000000      61.03277808
  1 19 17  1 1 4  1      37.50000000      12.50000000      35.00000000     270.00000000      61.03277808
  1 19 17  1 1 5  1      37.50000000      12.50000000      35.00000000     270.00000000      50.00000000
  1 19 17  1 1 6  1      37.50000000      12.50000000      35.00000000     270.00000000      61.03277808
  1 19 18  1 1 7  1      37.50000000      12.50000000      35.00000000     270.00000000      61.03277808
  1 19 18  1 1 8  1      37.50000000      12.50000000      35.00000000     270.00000000      50.00000000
  1 19 18  1 1 9  1      37.50000000      12.50000000      35.00000000     270.00000000      61.03277808
  1 19 19  1 1 10  1      37.50000000      12.50000000      35.00000000     270.00000000      61.03277808
  1 19 19  1 1 11  1      37.50000000      12.50000000      35.00000000     270.00000000      50.00000000
  1 19 19  1 1 12  1      37.50000000      12.50000000      35.00000000     270.00000000      61.03277808
  1 19 20  1 1 13  1      37.50000000      12.50000000      35.00000000     270.00000000      61.03277808
  1 19 20  1 1 14  1      37.50000000      12.50000000      35.00000000     270.00000000      50.00000000
  1 19 20  1 1 15  1      37.50000000      12.50000000      35.00000000     270.00000000      61.03277808
  1 19 21  1 1 16  1      37.50000000      12.50000000      35.00000000     270.00000000      61.03277808
  1 19 21  1 1 17  1      37.50000000      12.50000000      35.00000000     270.00000000      50.00000000
  1 19 21  1 1 18  1      37.50000000      12.50000000      35.00000000     270.00000000      61.03277808
  1 19 22  1 1 19  1      37.50000000      12.50000000      35.00000000     270.00000000      61.03277808
  1 19 22  1 1 20  1      37.50000000      12.50000000      35.00000000     270.00000000      50.00000000
  1 19 22  1 1 21  1      37.50000000      12.50000000      35.00000000     270.00000000      61.03277808
  1 19 23  1 1 22  1      37.50000000      12.50000000      35.00000000     270.00000000      61.03277808
  1 19 23  1 1 23  1      37.50000000      12.50000000      35.00000000     270.00000000      50.00000000
  1 19 23  1 1 24  1      37.50000000      12.50000000      35.00000000     270.00000000      61.03277808
  1 19 24  1 1 25  1      37.50000000      12.50000000      35.00000000     270.00000000      61.03277808
  1 19 24  1 1 26  1      37.50000000      12.50000000      35.00000000     270.00000000      50.00000000
  1 19 24  1 1 27  1      37.50000000      12.50000000      35.00000000     270.00000000      61.03277808
  1 19 25  1 1 28  1      37.50000000      12.50000000      35.00000000     270.00000000      61.03277808
  1 19 25  1 1 29  1      37.50000000      12.50000000      35.00000000     270.00000000      50.00000000
  1 19 25  1 1 30  1      37.50000000      12.50000000      35.00000000     270.00000000      61.03277808
  1 19 26  1 1 31  1      37.50000000      12.50000000      35.00000000     270.00000000      61.03277808
  1 19 26  1 1 32  1      37.50000000      12.50000000      35.00000000     270.00000000      50.00000000
  1 19 26  1 1 33  1      37.50000000      12.50000000      35.00000000     270.00000000      61.03277808
  1 19 27  1 1 34  1      37.50000000      12.50000000      35.00000000     270.00000000      61.03277808
  1 19 27  1 1 35  1      37.50000000      12.50000000      35.00000000     270.00000000      50.00000000
  1 19 27  1 1 36  1      37.50000000      12.50000000      35.00000000     270.00000000      61.03277808
  1 19 28  1 1 37  1      37.50000000      12.50000000      35.00000000     270.00000000      61.03277808
  1 19 28  1 1 38  1      37.50000000      12.50000000      35.00000000     270.00000000      50.00000000
  1 19 28  1 1 39  1      37.50000000      12.50000000      35.00000000     270.00000000      61.03277808
  1 19 29  1 1 40  1      37.50000000      12.50000000      35.00000000     270.00000000      61.03277808
  1 19 29  1 1 41  1      37.50000000      12.50000000      35.00000000     270.00000000      50.00000000
  1 19 29  1 1 42  1      37.50000000      12.50000000      35.00000000     270.00000000      61.03277808
  1 19 30  1 1 43  1      37.50000000      12.50000000      35.00000000     270.00000000      61.03277808
  1 19 30  1 1 44  1      37.50000000      12.50000000      35.00000000     270.00000000      50.00000000
  1 19 30  1 1 45  1      37.50000000      12.50000000      35.00000000     270.00000000      61.03277808
  1 19 31  1 1 46  1      37.50000000      12.50000000      35.00000000     270.00000000      61.03277808
  1 19 31  1 1 47  1      37.50000000      12.50000000      35.00000000     270.00000000      50.00000000
  1 19 31  1 1 48  1      37.50000000      12.50000000      35.00000000     270.00000000      61.03277808
  1 19 32  1 1 49  1      37.50000000      12.50000000      35.00000000     270.00000000      61.03277808
  1 19 32  1 1 50  1      37.50000000      12.50000000      35.00000000     270.00000000      50.00000000
  1 19 32  1 1 51  1      37.50000000      12.50000000      35.00000000     270.00000000      61.03277808
  1 19 33  1 1 52  1      37.50000000      12.50000000      35.00000000     270.00000000      61.03277808
  1 19 33  1 1 53  1      37.50000000      12.50000000      35.00000000     270.00000000      50.00000000
  1 19 33  1 1 54  1      37.50000000      12.50000000      35.00000000     270.00000000      61.03277808
  1 19 34  1 1 55  1      37.50000000      12.50000000      35.00000000     270.00000000      61.03277808
  1 19 34  1 1 56  1      37.50000000      12.50000000      35.00000000     270.00000000      50.00000000
  1 20 35  1 1 57  1      52.50000000      17.50000000      25.00000000     180.00000000      74.33034374
  1 19 34  1 1 57  1      37.50000000      12.50000000      35.00000000     270.00000000      61.03277808
  1 20 15  1 2 1  1      52.50000000      17.50000000      25.00000000       0.00000000      70.00000000
  1 20 35  1 2 57  1      52.50000000      17.50000000      25.00000000     180.00000000      70.00000000
  1 20 15  1 3 1  1      52.50000000      17.50000000      25.00000000       0.00000000      74.33034374
  1 20 35  1 3 57  1      52.50000000      17.50000000      25.00000000     180.00000000      74.33034374
  1 21 15  1 4 1  1      52.50000000      17.50000000      25.00000000       0.00000000      74.33034374
  1 21 35  1 4 57  1      52.50000000      17.50000000      25.00000000     180.00000000      74.33034374
  1 21 15  1 5 1  1      52.50000000      17.50000000      25.00000000       0.00000000      70.00000000
  1 21 35  1 5 57  1      52.50000000      17.50000000      25.00000000     180.00000000      70.00000000
  1 21 15  1 6 1  1      52.50000000      17.50000000      25.00000000       0.00000000      74.33034374
  1 21 35  1 6 57  1      52.50000000      17.50000000      25.00000000     180.00000000      74.33034374
  1 22 15  1 7 1  1      52.50000000      17.50000000      25.00000000       0.00000000      74.33034374
  1 22 35  1 7 57  1      52.50000000      17.50000000      25.00000000     180.00000000      74.33034374
  1 22 15  1 8 1  1      52.50000000      17.50000000      25.00000000       0.00000000      70.00000000
  1 22 35  1 8 57  1      52.50000000      17.50000000      25.00000000     180.00000000      70.00000000
  1 22 15  1 9 1  1      52.50000000      17.50000000      25.00000000       0.00000000      74.33034374
  1 22 35  1 9 57  1      52.50000000      17.50000000      25.00000000     180.00000000      74.33034374
  1 23 15  1 10 1  1      52.50000000      17.50000000      25.00000000       0.00000000      74.33034374
  1 23 35  1 10 57  1      52.50000000      17.50000000      25.00000000     180.00000000      74.33034374
  1 23 15  1 11 1  1      52.50000000      17.50000000      25.00000000       0.00000000      70.00000000
  1 23 35  1 11 57  1      52.50000000      17.50000000      25.00000000     180.00000000      70.00000000
  1 23 15  1 12 1  1      52.50000000      17.50000000      25.00000000       0.00000000      74.33034374
  1 23 35  1 12 57  1      52.50000000      17.50000000      25.00000000     180.00000000      74.33034374
  1 24 15  1 13 1  1      52.50000000      17.50000000      25.00000000       0.00000000      74.33034374
  1 24 35  1 13 57  1      52.50000000      17.50000000      25.00000000     180.00000000      74.33034374
  1 24 15  1 14 1  1      52.50000000      17.50000000      25.00000000       0.00000000      70.00000000
  1 24 35  1 14 57  1      52.50000000      17.50000000      25.00000000     180.00000000      70.00000000
  1 24 15  1 15 1  1      52.50000000      17.50000000      25.00000000       0.00000000      74.33034374
  1 24 35  1 15 57  1      52.50000000      17.50000000      25.00000000     180.00000000      74.33034374
  1 25 15  1 16 1  1      52.50000000      17.50000000      25.00000000       0.00000000      74.33034374
  1 25 35  1 16 57  1      52.50000000      17.50000000      25.00000000     180.00000000      74.33034374
  1 25 15  1 17 1  1      52.50000000      17.50000000      25.00000000       0.00000000      70.00000000
  1 25 35  1 17 57  1      52.50000000      17.50000000      25.00000000     180.00000000      70.00000000
  1 25 15  1 18 1  1      52.50000000      17.50000000      25.00000000       0.00000000      74.33034374
  1 25 35  1 18 57  1      52.50000000      17.50000000      25.00000000     180.00000000      74.33034374
  1 26 15  1 19 1  1      52.50000000      17.50000000      25.00000000       0.00000000      74.33034374
  1 26 35  1 19 57  1      52.50000000      17.50000000      25.00000000     180.00000000      74.33034374
  1 26 15  1 20 1  1      52.50000000      17.50000000      25.00000000       0.00000000      70.00000000
  1 26 35  1 20 57  1      52.50000000      17.50000000      25.00000000     180.00000000      70.00000000
  1 26 15  1 21 1  1      52.50000000      17.50000000      25.00000000       0.00000000      74.33034374
  1 26 35  1 21 57  1      52.50000000      17.50000000      25.00000000     180.00000000      74.33034374
  1 27 15  1 22 1  1      52.50000000      17.50000000      25.00000000       0.00000000      74.33034374
  1 27 35  1 22 57  1      52.50000000      17.50000000      25.00000000     180.00000000      74.33034374
  1 27 15  1 23 1  1      52.50000000      17.50000000      25.00000000       0.00000000      70.00000000
  1 27 35  1 23 57  1      52.50000000      17.50000000      25.00000000     180.00000000      70.00000000
  1 27 15  1 24 1  1      52.50000000      17.50000000      25.00000000       0.00000000      74.33034374
  1 27 35  1 24 57  1      52.50000000      17.50000000      25.00000000     180.00000000      74.33034374
  1 28 15  1 25 1  1      52.50000000      17.50000000      25.00000000       0.00000000      74.33034374
  1 28 35  1 25 57  1      52.50000000      17.50000000      25.00000000     180.00000000      74.33034374
  1 28 15  1 26 1  1      52.50000000      17.50000000      25.00000000       0.00000000      70.00000000
  1 28 35  1 26 57  1      52.50000000      17.50000000      25.00000000     180.00000000      70.00000000
  1 28 15  1 27 1  1      52.50000000      17.50000000      25.00000000       0.00000000      74.33034374
  1 28 35  1 27 57  1      52.50000000      17.50000000      25.00000000     180.00000000      74.33034374
  1 29 15  1 28 1  1      52.50000000      17.50000000      25.00000000       0.00000000      74.33034374
  1 29 35  1 28 57  1      52.50000000      17.50000000      25.00000000     180.00000000      74.33034374
  1 29 15  1 29 1  1      52.50000000      17.50000000      25.00000000       0.00000000      70.00000000
  1 29 35  1 29 57  1      52.50000000      17.50000000      25.00000000     180.00000000      70.00000000
  1 29 15  1 30 1  1      52.50000000      17.50000000      25.00000000       0.00000000      74.33034374
  1 29 35  1 30 57  1      52.50000000      17.50000000      25.00000000     180.00000000      74.33034374
  1 30 15  1 31 1  1      52.50000000      17.50000000      25.00000000       0.00000000      74.33034374
  1 30 35  1 31 57  1      52.50000000      17.50000000      25.00000000     180.00000000      74.33034374
  1 30 15  1 32 1  1      52.50000000      17.50000000      25.00000000       0.00000000      70.00000000
  1 30 35  1 32 57  1      52.50000000      17.50000000      25.00000000     180.00000000      70.00000000
  1 30 15  1 33 1  1      52.50000000      17.50000000      25.00000000       0.00000000      74.33034374
  1 30 35  1 33 57  1      52.50000000      17.50000000      25.00000000     180.00000000      74.33034374
  1 31 15  1 34 1  1      52.50000000      17.50000000      25.00000000       0.00000000      74.33034374
  1 31 35  1 34 57  1      52.50000000      17.50000000      25.00000000     180.00000000      74.33034374
  1 31 15  1 35 1  1      52.50000000      17.50000000      25.00000000       0.00000000      70.00000000
  1 31 35  1 35 57  1      52.50000000      17.50000000      25.00000000     180.00000000      70.00000000
  1 31 15  1 36 1  1      52.50000000      17.50000000      25.00000000       0.00000000      74.33034374
  1 31 35  1 36 57  1      52.50000000      17.50000000      25.00000000     180.00000000      74.33034374
  1 32 15  1 37 1  1      52.50000000      17.50000000      25.00000000       0.00000000      74.33034374
  1 32 35  1 37 57  1      52.50000000      17.50000000      25.00000000     180.00000000      74.33034374
  1 32 15  1 38 1  1      52.50000000      17.50000000      25.00000000       0.00000000      70.00000000
  1 32 35  1 38 57  1      52.50000000      17.50000000      25.00000000     180.00000000      70.00000000
  1 32 15  1 39 1  1      52.50000000      17.50000000      25.00000000       0.00000000      74.33034374
  1 32 35  1 39 57  1      52.50000000      17.50000000      25.00000000     180.00000000      74.33034374
  1 33 15  1 40 1  1      52.50000000      17.50000000      25.00000000       0.00000000      74.33034374
  1 33 35  1 40 57  1      52.50000000      17.50000000      25.00000000     180.00000000      74.33034374
  1 33 15  1 41 1  1      52.50000000      17.50000000      25.00000000       0.00000000      70.00000000
  1 33 35  1 41 57  1      52.50000000      17.50000000      25.00000000     180.00000000      70.00000000
  1 33 15  1 42 1  1      52.50000000      17.50000000      25.00000000       0.00000000      74.33034374
  1 33 35  1 42 57  1      52.50000000      17.50000000      25.00000000     180.00000000      74.33034374
  1 34 15  1 43 1  1      52.50000000      17.50000000      25.00000000       0.00000000      74.33034374
  1 34 35  1 43 57  1      52.50000000      17.50000000      25.00000000     180.00000000      74.33034374
  1 34 15  1 44 1  1      52.50000000      17.50000000      25.00000000       0.00000000      70.00000000
  1 34 35  1 44 57  1      52.50000000      17.50000000      25.00000000     180.00000000      70.00000000
  1 34 15  1 45 1  1      52.50000000      17.50000000      25.00000000       0.00000000      74.33034374
  1 34 35  1 45 57  1      52.50000000      17.50000000      25.00000000     180.00000000      74.33034374
  1 35 15  1 46 1  1      52.50000000      17.50000000      25.00000000       0.00000000      74.33034374
  1 35 35  1 46 57  1      52.50000000      17.50000000      25.00000000     180.00000000      74.33034374
  1 35 15  1 47 1  1      52.50000000      17.50000000      25.00000000       0.00000000      70.00000000
  1 35 35  1 47 57  1      52.50000000      17.50000000      25.00000000     180.00000000      70.00000000
  1 35 15  1 48 1  1      52.50000000      17.50000000      25.00000000       0.00000000      74.33034374
  1 35 35  1 48 57  1      52.50000000      17.50000000      25.00000000     180.00000000      74.33034374
  1 36 15  1 49 1  1      52.50000000      17.50000000      25.00000000       0.00000000      74.33034374
  1 36 35  1 49 57  1      52.50000000      17.50000000      25.00000000     180.00000000      74.33034374
  1 36 15  1 50 1  1      52.50000000      17.50000000      25.00000000       0.00000000      70.00000000
  1 36 35  1 50 57  1      52.50000000      17.50000000      25.00000000     180.00000000      70.00000000
  1 36 15  1 51 1  1      52.50000000      17.50000000      25.00000000       0.00000000      74.33034374
  1 36 35  1 51 57  1      52.50000000      17.50000000      25.00000000     180.00000000      74.33034374
  1 37 15  1 52 1  1      52.50000000      17.50000000      25.00000000       0.00000000      74.33034374
  1 37 35  1 52 57  1      52.50000000      17.50000000      25.00000000     180.00000000      74.33034374
  1 37 15  1 53 1  1      52.50000000      17.50000000      25.00000000       0.00000000      70.00000000
  1 37 35  1 53 57  1      52.50000000      17.50000000      25.00000000     180.00000000      70.00000000
  1 37 15  1 54 1  1      52.50000000      17.50000000      25.00000000       0.00000000      74.33034374
  1 37 35  1 54 57  1      52.50000000      17.50000000      25.00000000     180.00000000      74.33034374
  1 38 15  1 55 1  1      52.50000000      17.50000000      25.00000000       0.00000000      74.33034374
  1 38 35  1 55 57  1      52.50000000      17.50000000      25.00000000     180.00000000      74.33034374
  1 38 15  1 56 1  1      52.50000000      17.50000000      25.00000000       0.00000000      70.00000000
  1 38 35  1 56 57  1      52.50000000      17.50000000      25.00000000     180.00000000      70.00000000
  1 38 15  1 57 1  1      52.50000000      17.50000000      25.00000000       0.00000000      74.33034374
  1 38 35  1 57 57  1      52.50000000      17.50000000      25.00000000     180.00000000      74.33034374
  1 39 15  1 58 1  1      52.50000000      17.50000000      25.00000000       0.00000000      74.33034374
  1 39 35  1 58 57  1      52.50000000      17.50000000      25.00000000     180.00000000      74.33034374
  1 39 15  1 59 1  1      52.50000000      17.50000000      25.00000000       0.00000000      70.00000000
  1 39 35  1 59 57  1      52.50000000      17.50000000      25.00000000     180.00000000      70.00000000
  1 39 15  1 60 1  1      52.50000000      17.50000000      25.00000000       0.00000000      74.33034374
  1 39 35  1 60 57  1      52.50000000      17.50000000      25.00000000     180.00000000      74.33034374
  1 40 15  1 61 1  1      52.50000000      17.50000000      25.00000000       0.00000000      74.33034374
  1 40 35  1 61 57  1      52.50000000      17.50000000      25.00000000     180.00000000      74.33034374
  1 40 15  1 62 1  1      52.50000000      17.50000000      25.00000000       0.00000000      70.00000000
  1 40 35  1 62 57  1      52.50000000      17.50000000      25.00000000     180.00000000      70.00000000
  1 40 15  1 63 1  1      52.50000000      17.50000000      25.00000000       0.00000000      74.33034374
  1 40 35  1 63 57  1      52.50000000      17.50000000      25.00000000     180.00000000      74.33034374
  1 41 15  1 64 1  1      52.50000000      17.50000000      25.00000000       0.00000000      74.33034374
  1 41 35  1 64 57  1      52.50000000      17.50000000      25.00000000     180.00000000      74.33034374
  1 41 15  1 65 1  1      52.50000000      17.50000000      25.00000000       0.00000000      70.00000000
  1 41 35  1 65 57  1      52.50000000      17.50000000      25.00000000     180.00000000      70.00000000
  1 41 15  1 66 1  1      52.50000000      17.50000000      25.00000000       0.00000000      74.33034374
  1 41 35  1 66 57  1      52.50000000      17.50000000      25.00000000     180.00000000      74.33034374
  1 42 15  1 67 1  1      52.50000000      17.50000000      25.00000000       0.00000000      74.33034374
  1 42 35  1 67 57  1      52.50000000      17.50000000      25.00000000     180.00000000      74.33034374
  1 42 15  1 68 1  1      52.50000000      17.50000000      25.00000000       0.00000000      70.00000000
  1 42 35  1 68 57  1      52.50000000      17.50000000      25.00000000     180.00000000      70.00000000
  1 42 15  1 69 1  1      52.50000000      17.50000000      25.00000000       0.00000000      74.33034374
  1 43 16  1 69 1  1      37.50000000      12.50000000      35.00000000      90.00000000      61.03277808
  1 43 16  1 69 2  1      37.50000000      12.50000000      35.00000000      90.00000000      50.00000000
  1 43 16  1 69 3  1      37.50000000      12.50000000      35.00000000      90.00000000      61.03277808
  1 43 17  1 69 4  1      37.50000000      12.50000000      35.00000000      90.00000000      61.03277808
  1 43 17  1 69 5  1      37.50000000      12.50000000      35.00000000      90.00000000      50.00000000
  1 43 17  1 69 6  1      37.50000000      12.50000000      35.00000000      90.00000000      61.03277808
  1 43 18  1 69 7  1      37.50000000      12.50000000      35.00000000      90.00000000      61.03277808
  1 43 18  1 69 8  1      37.50000000      12.50000000      35.00000000      90.00000000      50.00000000
  1 43 18  1 69 9  1      37.50000000      12.50000000      35.00000000      90.00000000      61.03277808
  1 43 19  1 69 10  1      37.50000000      12.50000000      35.00000000      90.00000000      61.03277808
  1 43 19  1 69 11  1      37.50000000      12.50000000      35.00000000      90.00000000      50.00000000
  1 43 19  1 69 12  1      37.50000000      12.50000000      35.00000000      90.00000000      61.03277808
  1 43 20  1 69 13  1      37.50000000      12.50000000      35.00000000      90.00000000      61.03277808
  1 43 20  1 69 14  1      37.50000000      12.50000000      35.00000000      90.00000000      50.00000000
  1 43 20  1 69 15  1      37.50000000      12.50000000      35.00000000      90.00000000      61.03277808
  1 43 21  1 69 16  1      37.50000000      12.50000000      35.00000000      90.00000000      61.03277808
  1 43 21  1 69 17  1      37.50000000      12.50000000      35.00000000      90.00000000      50.00000000
  1 43 21  1 69 18  1      37.50000000      12.50000000      35.00000000      90.00000000      61.03277808
  1 43 22  1 69 19  1      37.50000000      12.50000000      35.00000000      90.00000000      61.03277808
  1 43 22  1 69 20  1      37.50000000      12.50000000      35.00000000      90.00000000      50.00000000
  1 43 22  1 69 21  1      37.50000000      12.50000000      35.00000000      90.00000000      61.03277808
  1 43 23  1 69 22  1      37.50000000      12.50000000      35.00000000      90.00000000      61.03277808
  1 43 23  1 69 23  1      37.50000000      12.50000000      35.00000000      90.00000000      50.00000000
  1 43 23  1 69 24  1      37.50000000      12.50000000      35.00000000      90.00000000      61.03277808
  1 43 24  1 69 25  1      37.50000000      12.50000000      35.00000000      90.00000000      61.03277808
  1 43 24  1 69 26  1      37.50000000      12.50000000      35.00000000      90.00000000      50.00000000
  1 43 24  1 69 27  1      37.50000000      12.50000000      35.00000000      90.00000000      61.03277808
  1 43 25  1 69 28  1      37.50000000      12.50000000      35.00000000      90.00000000      61.03277808
  1 43 25  1 69 29  1      37.50000000      12.50000000      35.00000000      90.00000000      50.00000000
  1 43 25  1 69 30  1      37.50000000      12.50000000      35.00000000      90.00000000      61.03277808
  1 43 26  1 69 31  1      37.50000000      12.50000000      35.00000000      90.00000000      61.03277808
  1 43 26  1 69 32  1      37.50000000      12.50000000      35.00000000      90.00000000      50.00000000
  1 43 26  1 69 33  1      37.50000000      12.50000000      35.00000000      90.00000000      61.03277808
  1 43 27  1 69 34  1      37.50000000      12.50000000      35.00000000      90.00000000      61.03277808
  1 43 27  1 69 35  1      37.50000000      12.50000000      35.00000000      90.00000000      50.00000000
  1 43 27  1 69 36  1      37.50000000      12.50000000      35.00000000      90.00000000      61.03277808
  1 43 28  1 69 37  1      37.50000000      12.50000000      35.00000000      90.00000000      61.03277808
  1 43 28  1 69 38  1      37.50000000      12.50000000      35.00000000      90.00000000      50.00000000
  1 43 28  1 69 39  1      37.50000000      12.50000000      35.00000000      90.00000000      61.03277808
  1 43 29  1 69 40  1      37.50000000      12.50000000      35.00000000      90.00000000      61.03277808
  1 43 29  1 69 41  1      37.50000000      12.50000000      35.00000000      90.00000000      50.00000000
  1 43 29  1 69 42  1      37.50000000      12.50000000      35.00000000      90.00000000      61.03277808
  1 43 30  1 69 43  1      37.50000000      12.50000000      35.00000000      90.00000000      61.03277808
  1 43 30  1 69 44  1      37.50000000      12.50000000      35.00000000      90.00000000      50.00000000
  1 43 30  1 69 45  1      37.50000000      12.50000000      35.00000000      90.00000000      61.03277808
  1 43 31  1 69 46  1      37.50000000      12.50000000      35.00000000      90.00000000      61.03277808
  1 43 31  1 69 47  1      37.50000000      12.50000000      35.00000000      90.00000000      50.00000000
  1 43 31  1 69 48  1      37.50000000      12.50000000      35.00000000      90.00000000      61.03277808
  1 43 32  1 69 49  1      37.50000000      12.50000000      35.00000000      90.00000000      61.03277808
  1 43 32  1 69 50  1      37.50000000      12.50000000      35.00000000      90.00000000      50.00000000
  1 43 32  1 69 51  1      37.50000000      12.50000000      35.00000000      90.00000000      61.03277808
  1 43 33  1 69 52  1      37.50000000      12.50000000      35.00000000      90.00000000      61.03277808
  1 43 33  1 69 53  1      37.50000000      12.50000000      35.00000000      90.00000000      50.00000000
  1 43 33  1 69 54  1      37.50000000      12.50000000      35.00000000      90.00000000      61.03277808
  1 43 34  1 69 55  1      37.50000000      12.50000000      35.00000000      90.00000000      61.03277808
  1 43 34  1 69 56  1      37.50000000      12.50000000      35.00000000      90.00000000      50.00000000
  1 42 35  1 69 57  1      52.50000000      17.50000000      25.00000000     180.00000000      74.33034374
  1 43 34  1 69 57  1      37.50000000      12.50000000      35.00000000      90.00000000      61.03277808
  2 20 15  2 1 1  2      52.50000000      17.50000000      25.00000000       0.00000000      74.33034374
  2 19 16  2 1 1  2      37.50000000      12.50000000      35.00000000     270.00000000      61.03277808
  2 19 16  2 1 2  2      37.50000000      12.50000000      35.00000000     270.00000000      50.00000000
  2 19 16  2 1 3  2      37.50000000      12.50000000      35.00000000     270.00000000      61.03277808
  2 19 17  2 1 4  2      37.50000000      12.50000000      35.00000000     270.00000000      61.03277808
  2 19 17  2 1 5  2      37.50000000      12.50000000      35.00000000     270.00000000      50.00000000
  2 19 17  2 1 6  2      37.50000000      12.50000000      35.00000000     270.00000000      61.03277808
  2 19 18  2 1 7  2      37.50000000      12.50000000      35.00000000     270.00000000      61.03277808
  2 19 18  2 1 8  2      37.50000000      12.50000000      35.00000000     270.00000000      50.00000000
  2 19 18  2 1 9  2      37.50000000      12.50000000      35.00000000     270.00000000      61.03277808
  2 19 19  2 1 10  2      37.50000000      12.50000000      35.00000000     270.00000000      61.03277808
  2 19 19  2 1 11  2      37.50000000      12.50000000      35.00000000     270.00000000      50.00000000
  2 19 19  2 1 12  2      37.50000000      12.50000000      35.00000000     270.00000000      61.03277808
  2 19 20  2 1 13  2      37.50000000      12.50000000      35.00000000     270.00000000      61.03277808
  2 19 20  2 1 14  2      37.50000000      12.50000000      35.00000000     270.00000000      50.00000000
  2 19 20  2 1 15  2      37.50000000      12.50000000      35.00000000     270.00000000      61.03277808
  2 19 21  2 1 16  2      37.50000000      12.50000000      35.00000000     270.00000000      61.03277808
  2 19 21  2 1 17  2      37.50000000      12.50000000      35.00000000     270.00000000      50.00000000
  2 19 21  2 1 18  2      37.50000000      12.50000000      35.00000000     270.00000000      61.03277808
  2 19 22  2 1 19  2      37.50000000      12.50000000      35.00000000     270.00000000      61.03277808
  2 19 22  2 1 20  2      37.50000000      12.50000000      35.00000000     270.00000000      50.00000000
  2 19 22  2 1 21  2      37.50000000      12.50000000      35.00000000     270.00000000      61.03277808
  2 19 23  2 1 22  2      37.50000000      12.50000000      35.00000000     270.00000000      61.03277808
  2 19 23  2 1 23  2      37.50000000      12.50000000      35.00000000     270.00000000      50.00000000
  2 19 23  2 1 24  2      37.50000000      12.50000000      35.00000000     270.00000000      61.03277808
  2 19 24  2 1 25  2      37.50000000      12.50000000      35.00000000     270.00000000      61.03277808
  2 19 24  2 1 26  2      37.50000000      12.50000000      35.00000000     270.00000000      50.00000000
  2 19 24  2 1 27  2      37.50000000      12.50000000      35.00000000     270.00000000      61.03277808