# File generated by Flopy version 3.9.1 on 05/29/2025 at 10:44:47.
BEGIN options
  BUDGET  FILEOUT  parent.cbc
  HEAD  FILEOUT  parent.hds
END options

BEGIN period  1
  SAVE  HEAD  ALL
  SAVE  BUDGET  ALL
END period  1

