# File generated by Flopy version 3.9.1 on 05/30/2025 at 11:24:47.
BEGIN options
  READASARRAYS
END options

BEGIN period  1
  recharge
    CONSTANT  1.10980000E-09
END period  1

