# File generated by Flopy version 3.9.1 on 06/03/2025 at 08:25:47.
BEGIN options
  SAVE_FLOWS
END options

BEGIN packages
  DIS6  parent.dis  dis
  NPF6  parent.npf  npf
  IC6  parent.ic  ic
  RIV6  parent.riv  riv
  RCH6  parent.rcha  rch
  OC6  parent.oc  oc
END packages

