# File generated by Flopy version 3.9.1 on 05/29/2025 at 10:44:47.
BEGIN options
  READASARRAYS
END options

BEGIN period  1
  recharge
    CONSTANT  1.10980000E-09
END period  1

