# File generated by Flopy version 3.8.2 on 06/03/2025 at 11:41:07.
BEGIN options
END options

BEGIN continuous  FILEOUT  sfr.csv
  headwater  sfr  headwater
  tailwater  sfr  tailwater
  gage-1  inflow  40.0
END continuous  FILEOUT  sfr.csv

