# WEL package for MODFLOW-2005 generated by Flopy 3.9.1
         2         0 
         1         0 # stress period 1
         2         2         4             3.0
        -1         0 # stress period 2
        -1         0 # stress period 3
         2         0 # stress period 4
         2         2         4             3.0
         2         2         2             1.0
        -1         0 # stress period 5
         2         0 # stress period 6
         2         2         4             3.0
         2         3         5             4.0
        -1         0 # stress period 7
        -1         0 # stress period 8
         2         0 # stress period 9
        10         3         5             4.0
         2         3         5             4.0
        -1         0 # stress period 10
