# DIS package for MODFLOW-2005 generated by Flopy 3.9.1
        10        10        10        10         4         2
  0  0  0  0  0  0  0  0  0  0
CONSTANT    1.000000E+00                           #delr                          
CONSTANT    1.000000E+00                           #delc                          
CONSTANT    1.000000E+00                           #model_top                     
CONSTANT    1.000000E+00                           #botm layer 1                  
CONSTANT    8.888889E-01                           #botm layer 2                  
CONSTANT    7.777778E-01                           #botm layer 3                  
CONSTANT    6.666667E-01                           #botm layer 4                  
CONSTANT    5.555556E-01                           #botm layer 5                  
CONSTANT    4.444444E-01                           #botm layer 6                  
CONSTANT    3.333333E-01                           #botm layer 7                  
CONSTANT    2.222222E-01                           #botm layer 8                  
CONSTANT    1.111111E-01                           #botm layer 9                  
CONSTANT    0.000000E+00                           #botm layer 10                 
      1.000000             1  1.000000  SS
      1.000000             1  1.000000  SS
      1.000000             1  1.000000  SS
      1.000000             1  1.000000  SS
      1.000000             1  1.000000  SS
      1.000000             1  1.000000  SS
      1.000000             1  1.000000  SS
      1.000000             1  1.000000  SS
      1.000000             1  1.000000  SS
      1.000000             1  1.000000  SS
