# RIV package for MODFLOW-2005 generated by Flopy 3.9.1
         3         0
         3         0 # stress period 1
        77            10.7          5000.0            -5.7
       245            10.7          5000.0            -5.7
    450034            10.7          5000.0            -5.7
