# RIV package for MODFLOW-2005 generated by Flopy 3.9.1
         3         0 aux iface
         3         0 # stress period 1
         3         4         5            10.7          5000.0            -5.7         1      riv1
         3         4         6            10.7          5000.0            -5.7         2      riv2
         3         4         7            10.7          5000.0            -5.7         3      riv3
