# Name file for MODFLOW-2005, generated by Flopy version 3.9.1.
#None; start_datetime:None
LIST               2  test.list
RIV               18  test.riv
