# File generated by Flopy version 3.8.2 on 02/13/2025 at 14:54:35.
BEGIN options
END options

BEGIN griddata
  strt
    CONSTANT     320.00000000
END griddata

