# File generated by Flopy version 3.8.2 on 02/13/2025 at 14:54:35.
BEGIN options
  READASARRAYS
END options

BEGIN period  1
  recharge
    CONSTANT       0.00500000
END period  1

