# File generated by Flopy version 3.9.1 on 05/18/2025 at 07:59:32.
BEGIN options
END options

BEGIN dimensions
  MAXBOUND  15
END dimensions

BEGIN period  1
  1 1 30 3.20000000E+02 1.00000000E+05 3.17000000E+02
  1 2 30 3.20000000E+02 1.00000000E+05 3.17000000E+02
  1 3 30 3.20000000E+02 1.00000000E+05 3.17000000E+02
  1 4 30 3.20000000E+02 1.00000000E+05 3.17000000E+02
  1 5 30 3.20000000E+02 1.00000000E+05 3.17000000E+02
  1 6 30 3.20000000E+02 1.00000000E+05 3.17000000E+02
  1 7 30 3.20000000E+02 1.00000000E+05 3.17000000E+02
  1 8 30 3.20000000E+02 1.00000000E+05 3.17000000E+02
  1 9 30 3.20000000E+02 1.00000000E+05 3.17000000E+02
  1 10 30 3.20000000E+02 1.00000000E+05 3.17000000E+02
  1 11 30 3.20000000E+02 1.00000000E+05 3.17000000E+02
  1 12 30 3.20000000E+02 1.00000000E+05 3.17000000E+02
  1 13 30 3.20000000E+02 1.00000000E+05 3.17000000E+02
  1 14 30 3.20000000E+02 1.00000000E+05 3.17000000E+02
  1 15 30 3.20000000E+02 1.00000000E+05 3.17000000E+02
END period  1

