# File generated by Flopy version 3.9.1 on 05/18/2025 at 07:59:32.
BEGIN options
  SAVE_FLOWS
END options

BEGIN packages
  DIS6  ex01_mf6.dis  dis
  IC6  ex01_mf6.ic  ic
  NPF6  ex01_mf6.npf  npf
  RCH6  ex01_mf6.rcha  rcha_0
  WEL6  ex01_mf6.wel  wel_0
  RIV6  ex01_mf6.riv  riv_0
  OC6  ex01_mf6.oc  oc
END packages

