# File generated by Flopy version 3.9.1 on 05/18/2025 at 07:59:32.
BEGIN options
  LENGTH_UNITS  feet
END options

BEGIN dimensions
  NLAY  3
  NROW  15
  NCOL  30
END dimensions

BEGIN griddata
  delr
    CONSTANT     350.00000000
  delc
    CONSTANT     700.00000000
  top
    CONSTANT     400.00000000
  botm  LAYERED
    CONSTANT     220.00000000
    CONSTANT     200.00000000
    CONSTANT       0.00000000
END griddata

