# File generated by Flopy version 3.9.1 on 05/18/2025 at 07:59:32.
BEGIN options
END options

BEGIN timing
  TDIS6  ex01_mf6.tdis
END timing

BEGIN models
  gwf6  ex01_mf6.nam  ex01_mf6
END models

BEGIN exchanges
END exchanges

BEGIN solutiongroup  1
  ims6  ex01_mf6.ims  ex01_mf6
END solutiongroup  1

