# File generated by Flopy version 3.9.1 on 02/24/2025 at 17:16:45.
BEGIN options
  SCHEME  upstream
END options

