# File generated by Flopy version 3.9.1 on 02/17/2025 at 15:46:09.
BEGIN options
END options

BEGIN griddata
  porosity
    CONSTANT       1.95700000
  volfrac
    CONSTANT       0.81093510
  zetaim
    CONSTANT       0.01000000
END griddata

