# File generated by Flopy version 3.10.0.dev3 on 06/16/2025 at 08:45:42.
BEGIN options
  PRINT_INPUT
  SAVE_FLOWS
  NEWTON  UNDER_RELAXATION
END options

BEGIN packages
  DIS6  model_1.dis  dis
  IC6  model_1.ic  ic
  NPF6  model_1.npf  npf
  RCH6  model_1.rcha  rcha_0
  DRN6  model_1.drn  river
  DRN6  model_1_0.drn  gwd
  OC6  model_1.oc  oc
END packages

