# File generated by Flopy version 3.9.1 on 07/28/2025 at 15:10:20.
BEGIN options
END options

BEGIN griddata
  strt
    CONSTANT      50.00000000
END griddata

