# File generated by Flopy version 3.9.1 on 07/10/2025 at 14:09:05.
BEGIN options
  TIME_UNITS  days
END options

BEGIN dimensions
  NPER  4
END dimensions

BEGIN perioddata
       1.00000000  1       1.00000000
      10.00000000  120       1.00000000
      10.00000000  120       1.00000000
      10.00000000  120       1.00000000
END perioddata

