# File generated by Flopy version 3.9.1 on 07/10/2025 at 14:09:05.
BEGIN options
END options

BEGIN griddata
  strt
    CONSTANT      50.00000000
END griddata

