# File generated by Flopy version 3.9.1 on 05/02/2025 at 07:31:57.
BEGIN options
END options

BEGIN griddata
  strt
    CONSTANT      50.00000000
END griddata

