# File generated by Flopy version 3.9.1 on 05/09/2025 at 07:29:49.
BEGIN options
END options

BEGIN period  1
  PRINT  BUDGET  LAST
END period  1

