# File generated by Flopy version 3.9.1 on 06/21/2025 at 17:06:40.
BEGIN options
END options

BEGIN griddata
  strt  LAYERED
    CONSTANT       3.05000000
    CONSTANT       9.14000000
END griddata

