# File generated by Flopy version 3.9.1 on 05/09/2025 at 07:29:49.
BEGIN options
END options

BEGIN griddata
  iconvert
    CONSTANT  0
  ss
    CONSTANT  1.00000000E-04
  sy
    CONSTANT       0.15000000
END griddata

