# File generated by Flopy version 3.9.1 on 05/09/2025 at 07:29:49.
BEGIN options
END options

BEGIN griddata
  strt  LAYERED
    CONSTANT       3.05000000
    CONSTANT       9.14000000
END griddata

