# File generated by Flopy version 3.9.1 on 03/05/2025 at 07:08:02.
BEGIN options
  SAVE_FLOWS
END options

BEGIN packages
  dis6  gwf-inner.dis  dis
  ic6  gwf-inner.ic  ic
  npf6  gwf-inner.npf  npf
  sto6  gwf-inner.sto  sto
  rch6  gwf-inner.rch  rch-1
  wel6  gwf-inner.wel  wel-1
  oc6  gwf-inner.oc  oc
END packages

