# File generated by Flopy version 3.9.1 on 03/05/2025 at 07:08:02.
BEGIN options
END options

BEGIN griddata
  iconvert
    CONSTANT  0
  ss
    CONSTANT       0.00000000
  sy
    CONSTANT       0.00000000
END griddata

