# File generated by Flopy version 3.9.1 on 06/18/2025 at 11:41:10.
BEGIN options
END options

BEGIN period  1
  PRINT  BUDGET  ALL
END period  1

