# File generated by Flopy version 3.9.1 on 03/10/2025 at 07:12:04.
BEGIN options
END options

BEGIN griddata
  porosity
    CONSTANT       0.35000000
END griddata

