# File generated by Flopy version 3.9.1 on 02/27/2025 at 11:24:26.
BEGIN options
END options

BEGIN griddata
  strt
    CONSTANT       0.00000000
END griddata

