# File generated by Flopy version 3.9.1 on 02/24/2025 at 15:09:40.
BEGIN options
  COMPLEXITY  simple
END options

