# File generated by Flopy version 3.8.2 on 01/28/2025 at 15:34:37.
BEGIN options
  SAVE_FLOWS
  K33OVERK
END options

BEGIN griddata
  icelltype
    CONSTANT  0
  k
    OPEN/CLOSE  'sgn.k1.txt'  FACTOR  1.0
  k33
    CONSTANT       0.10000000
END griddata

