# File generated by Flopy version 3.9.1 on 07/03/2025 at 10:31:06.
BEGIN options
END options

BEGIN period  1
  PRINT  BUDGET  LAST
END period  1

