# File generated by Flopy version 3.9.1 on 07/03/2025 at 10:31:06.
BEGIN options
END options

BEGIN griddata
  strt
    CONSTANT    1050.00000000
END griddata

