# File generated by Flopy version 3.9.1 on 07/03/2025 at 10:31:06.
BEGIN options
  DIGITS  10
  PRINT_INPUT
END options

BEGIN continuous  FILEOUT  ex-gwf-drn-p01.surfrate.obs.csv
  surfrate  to-mvr  surfrate
END continuous  FILEOUT  ex-gwf-drn-p01.surfrate.obs.csv

