# File generated by Flopy version 3.9.1 on 07/03/2025 at 10:31:05.
BEGIN options
  TIME_UNITS  seconds
END options

BEGIN dimensions
  NPER  12
END dimensions

BEGIN perioddata
  2.62800000E+06  1       1.00000000
  2.62800000E+06  15       1.10000000
  2.62800000E+06  15       1.10000000
  2.62800000E+06  15       1.10000000
  2.62800000E+06  15       1.10000000
  2.62800000E+06  15       1.10000000
  2.62800000E+06  15       1.10000000
  2.62800000E+06  15       1.10000000
  2.62800000E+06  15       1.10000000
  2.62800000E+06  15       1.10000000
  2.62800000E+06  15       1.10000000
  2.62800000E+06  15       1.10000000
END perioddata

