# File generated by Flopy version 3.9.1 on 02/28/2025 at 09:58:27.
BEGIN options
  SAVE_SPECIFIC_DISCHARGE
END options

BEGIN griddata
  icelltype
    CONSTANT  0
  k
    CONSTANT       0.50000000
  k33
    CONSTANT       0.50000000
END griddata

