# File generated by Flopy version 3.9.1 on 06/21/2025 at 10:28:44.
BEGIN options
  SAVE_FLOWS
END options

BEGIN packages
  DISV6  ex-gwf-u1disv-x.disv  disv
  NPF6  ex-gwf-u1disv-x.npf  npf
  IC6  ex-gwf-u1disv-x.ic  ic
  CHD6  ex-gwf-u1disv-x.left.chd  chd-l
  CHD6  ex-gwf-u1disv-x.right.chd  chd-r
  OC6  ex-gwf-u1disv-x.oc  oc
END packages

