# sgn_50 model version 0.post16.dev0+ge733124
# File generated by Flopy version 3.10.0.dev1 on 01/31/2025 at 12:04:33.
# via modflow-setup version 0.6.0 at 2025-01-31 12:04:33
BEGIN options
  NO_WELL_STORAGE
END options

BEGIN dimensions
  NMAWWELLS  0
END dimensions

