# sgn_50 model version 0.post16.dev0+ge733124
# File generated by Flopy version 3.10.0.dev1 on 02/01/2025 at 06:12:19.
# via modflow-setup version 0.6.0 at 2025-02-01 06:12:19
BEGIN options
  LENGTH_UNITS  meters
  XORIGIN  1.51792750E+06
  YORIGIN  5.02890974E+06
  ANGROT      14.00000000
END options

BEGIN dimensions
  NLAY  3
  NROW  96
  NCOL  83
END dimensions

BEGIN griddata
  delr
    CONSTANT      50.00000000
  delc
    CONSTANT      50.00000000
  top
    OPEN/CLOSE  '.\.\top.dat'  FACTOR  1.0
  botm  LAYERED
    OPEN/CLOSE  '.\.\botm_000.dat'  FACTOR  1.0
    OPEN/CLOSE  '.\.\botm_001.dat'  FACTOR  1.0
    OPEN/CLOSE  '.\.\botm_002.dat'  FACTOR  1.0
  idomain  LAYERED
    OPEN/CLOSE  '.\.\idomain_000.dat'  FACTOR  1
    OPEN/CLOSE  '.\.\idomain_001.dat'  FACTOR  1
    OPEN/CLOSE  '.\.\idomain_002.dat'  FACTOR  1
END griddata

