# File generated by Flopy version 3.9.1 on 05/16/2025 at 17:24:54.
BEGIN OPTIONS
END OPTIONS

BEGIN GRIDDATA
  strt
    INTERNAL  FACTOR  1.0
        45.00000000      45.00000000      45.00000000      45.00000000      45.00000000      45.00000000      45.00000000      45.00000000      45.00000000      45.00000000      45.00000000      45.00000000      45.00000000      45.00000000      45.00000000      45.00000000      45.00000000      45.00000000      45.00000000      45.00000000
        45.00000000      45.00000000      45.00000000      45.00000000      45.00000000      45.00000000      45.00000000      45.00000000      45.00000000      45.00000000      45.00000000      45.00000000      45.00000000      45.00000000      45.00000000      45.00000000      45.00000000      45.00000000      45.00000000      45.00000000
        45.00000000      45.00000000      45.00000000      45.00000000      45.00000000      45.00000000      45.00000000      45.00000000      45.00000000      45.00000000      45.00000000      45.00000000      45.00000000      45.00000000      45.00000000      45.00000000      45.00000000      45.00000000      45.00000000      45.00000000
        45.00000000      45.00000000      45.00000000      45.00000000      45.00000000      45.00000000      45.00000000      45.00000000      45.00000000      45.00000000      45.00000000      45.00000000      45.00000000      45.00000000      45.00000000      45.00000000      45.00000000      45.00000000      45.00000000      45.00000000
        45.00000000      45.00000000      45.00000000      45.00000000      45.00000000      45.00000000      45.00000000      45.00000000      45.00000000      45.00000000      45.00000000      45.00000000      45.00000000      45.00000000      45.00000000      45.00000000      45.00000000      45.00000000      45.00000000      45.00000000
        45.00000000      45.00000000      45.00000000      45.00000000      45.00000000      45.00000000      45.00000000      45.00000000      45.00000000      45.00000000      45.00000000      45.00000000      45.00000000      45.00000000      45.00000000      45.00000000      45.00000000      45.00000000      45.00000000      45.00000000
        45.00000000      45.00000000      45.00000000      45.00000000      45.00000000      45.00000000      45.00000000      45.00000000      45.00000000      45.00000000      45.00000000      45.00000000      45.00000000      45.00000000      45.00000000      45.00000000      45.00000000      45.00000000      45.00000000      45.00000000
        45.00000000      45.00000000      45.00000000      45.00000000      45.00000000      45.00000000      45.00000000      45.00000000      45.00000000      45.00000000      45.00000000      45.00000000      45.00000000      45.00000000      45.00000000      45.00000000      45.00000000      45.00000000      45.00000000      45.00000000
        45.00000000      45.00000000      45.00000000      45.00000000      45.00000000      45.00000000      45.00000000      45.00000000      45.00000000      45.00000000      45.00000000      45.00000000      45.00000000      45.00000000      45.00000000      45.00000000      45.00000000      45.00000000      45.00000000      45.00000000
        45.00000000      45.00000000      45.00000000      45.00000000      45.00000000      45.00000000      45.00000000      45.00000000      45.00000000      45.00000000      45.00000000      45.00000000      45.00000000      45.00000000      45.00000000      45.00000000      45.00000000      45.00000000      45.00000000      45.00000000
        45.00000000      45.00000000      45.00000000      45.00000000      45.00000000      45.00000000      45.00000000      45.00000000      45.00000000      45.00000000      45.00000000      45.00000000      45.00000000      45.00000000      45.00000000      45.00000000      45.00000000      45.00000000      45.00000000      45.00000000
        45.00000000      45.00000000      45.00000000      45.00000000      45.00000000      45.00000000      45.00000000      45.00000000      45.00000000      45.00000000      45.00000000      45.00000000      45.00000000      45.00000000      45.00000000      45.00000000      45.00000000      45.00000000      45.00000000      45.00000000
        45.00000000      45.00000000      45.00000000      45.00000000      45.00000000      45.00000000      45.00000000      45.00000000      45.00000000      45.00000000      45.00000000      45.00000000      45.00000000      45.00000000      45.00000000      45.00000000      45.00000000      45.00000000      45.00000000      45.00000000
        45.00000000      45.00000000      45.00000000      45.00000000      45.00000000      45.00000000      45.00000000      45.00000000      45.00000000      45.00000000      45.00000000      45.00000000      45.00000000      45.00000000      45.00000000      45.00000000      45.00000000      45.00000000      45.00000000      45.00000000
        45.00000000      45.00000000      45.00000000      45.00000000      45.00000000      45.00000000      45.00000000      45.00000000      45.00000000      45.00000000      45.00000000      45.00000000      45.00000000      45.00000000      45.00000000      45.00000000      45.00000000      45.00000000      45.00000000      45.00000000
        45.00000000      45.00000000      45.00000000      45.00000000      45.00000000      45.00000000      45.00000000      45.00000000      45.00000000      45.00000000      45.00000000      45.00000000      45.00000000      45.00000000      45.00000000      45.00000000      45.00000000      45.00000000      45.00000000      45.00000000
        45.00000000      45.00000000      45.00000000      45.00000000      45.00000000      45.00000000      45.00000000      45.00000000      45.00000000      45.00000000      45.00000000      45.00000000      45.00000000      45.00000000      45.00000000      45.00000000      45.00000000      45.00000000      45.00000000      45.00000000
        45.00000000      45.00000000      45.00000000      45.00000000      45.00000000      45.00000000      45.00000000      45.00000000      45.00000000      45.00000000      45.00000000      45.00000000      45.00000000      45.00000000      45.00000000      45.00000000      45.00000000      45.00000000      45.00000000      45.00000000
        45.00000000      45.00000000      45.00000000      45.00000000      45.00000000      45.00000000      45.00000000      45.00000000      45.00000000      45.00000000      45.00000000      45.00000000      45.00000000      45.00000000      45.00000000      45.00000000      45.00000000      45.00000000      45.00000000      45.00000000
        45.00000000      45.00000000      45.00000000      45.00000000      45.00000000      45.00000000      45.00000000      45.00000000      45.00000000      45.00000000      45.00000000      45.00000000      45.00000000      45.00000000      45.00000000      45.00000000      45.00000000      45.00000000      45.00000000      45.00000000
        45.00000000      45.00000000      45.00000000      45.00000000      45.00000000      45.00000000      45.00000000      45.00000000      45.00000000      45.00000000      45.00000000      45.00000000      45.00000000      45.00000000      45.00000000      45.00000000      45.00000000      45.00000000      45.00000000      45.00000000
        45.00000000      45.00000000      45.00000000      45.00000000      45.00000000      45.00000000      45.00000000      45.00000000      45.00000000      45.00000000      45.00000000      45.00000000      45.00000000      45.00000000      45.00000000      45.00000000      45.00000000      45.00000000      45.00000000      45.00000000
        45.00000000      45.00000000      45.00000000      45.00000000      45.00000000      45.00000000      45.00000000      45.00000000      45.00000000      45.00000000      45.00000000      45.00000000      45.00000000      45.00000000      45.00000000      45.00000000      45.00000000      45.00000000      45.00000000      45.00000000
        45.00000000      45.00000000      45.00000000      45.00000000      45.00000000      45.00000000      45.00000000      45.00000000      45.00000000      45.00000000      45.00000000      45.00000000      45.00000000      45.00000000      45.00000000      45.00000000      45.00000000      45.00000000      45.00000000      45.00000000
        45.00000000      45.00000000      45.00000000      45.00000000      45.00000000      45.00000000      45.00000000      45.00000000      45.00000000      45.00000000      45.00000000      45.00000000      45.00000000      45.00000000      45.00000000      45.00000000      45.00000000      45.00000000      45.00000000      45.00000000
        45.00000000      45.00000000      45.00000000      45.00000000      45.00000000      45.00000000      45.00000000      45.00000000      45.00000000      45.00000000      45.00000000      45.00000000      45.00000000      45.00000000      45.00000000      45.00000000      45.00000000      45.00000000      45.00000000      45.00000000
        45.00000000      45.00000000      45.00000000      45.00000000      45.00000000      45.00000000      45.00000000      45.00000000      45.00000000      45.00000000      45.00000000      45.00000000      45.00000000      45.00000000      45.00000000      45.00000000      45.00000000      45.00000000      45.00000000      45.00000000
        45.00000000      45.00000000      45.00000000      45.00000000      45.00000000      45.00000000      45.00000000      45.00000000      45.00000000      45.00000000      45.00000000      45.00000000      45.00000000      45.00000000      45.00000000      45.00000000      45.00000000      45.00000000      45.00000000      45.00000000
        45.00000000      45.00000000      45.00000000      45.00000000      45.00000000      45.00000000      45.00000000      45.00000000      45.00000000      45.00000000      45.00000000      45.00000000      45.00000000      45.00000000      45.00000000      45.00000000      45.00000000      45.00000000      45.00000000      45.00000000
        45.00000000      45.00000000      45.00000000      45.00000000      45.00000000      45.00000000      45.00000000      45.00000000      45.00000000      45.00000000      45.00000000      45.00000000      45.00000000      45.00000000      45.00000000      45.00000000      45.00000000      45.00000000      45.00000000      45.00000000
        45.00000000      45.00000000      45.00000000      45.00000000      45.00000000      45.00000000      45.00000000      45.00000000      45.00000000      45.00000000      45.00000000      45.00000000      45.00000000      45.00000000      45.00000000      45.00000000      45.00000000      45.00000000      45.00000000      45.00000000
        45.00000000      45.00000000      45.00000000      45.00000000      45.00000000      45.00000000      45.00000000      45.00000000      45.00000000      45.00000000      45.00000000      45.00000000      45.00000000      45.00000000      45.00000000      45.00000000      45.00000000      45.00000000      45.00000000      45.00000000
        45.00000000      45.00000000      45.00000000      45.00000000      45.00000000      45.00000000      45.00000000      45.00000000      45.00000000      45.00000000      45.00000000      45.00000000      45.00000000      45.00000000      45.00000000      45.00000000      45.00000000      45.00000000      45.00000000      45.00000000
        45.00000000      45.00000000      45.00000000      45.00000000      45.00000000      45.00000000      45.00000000      45.00000000      45.00000000      45.00000000      45.00000000      45.00000000      45.00000000      45.00000000      45.00000000      45.00000000      45.00000000      45.00000000      45.00000000      45.00000000
        45.00000000      45.00000000      45.00000000      45.00000000      45.00000000      45.00000000      45.00000000      45.00000000      45.00000000      45.00000000      45.00000000      45.00000000      45.00000000      45.00000000      45.00000000      45.00000000      45.00000000      45.00000000      45.00000000      45.00000000
        45.00000000      45.00000000      45.00000000      45.00000000      45.00000000      45.00000000      45.00000000      45.00000000      45.00000000      45.00000000      45.00000000      45.00000000      45.00000000      45.00000000      45.00000000      45.00000000      45.00000000      45.00000000      45.00000000      45.00000000
        45.00000000      45.00000000      45.00000000      45.00000000      45.00000000      45.00000000      45.00000000      45.00000000      45.00000000      45.00000000      45.00000000      45.00000000      45.00000000      45.00000000      45.00000000      45.00000000      45.00000000      45.00000000      45.00000000      45.00000000
        45.00000000      45.00000000      45.00000000      45.00000000      45.00000000      45.00000000      45.00000000      45.00000000      45.00000000      45.00000000      45.00000000      45.00000000      45.00000000      45.00000000      45.00000000      45.00000000      45.00000000      45.00000000      45.00000000      45.00000000
        45.00000000      45.00000000      45.00000000      45.00000000      45.00000000      45.00000000      45.00000000      45.00000000      45.00000000      45.00000000      45.00000000      45.00000000      45.00000000      45.00000000      45.00000000      45.00000000      45.00000000      45.00000000      45.00000000      45.00000000
        45.00000000      45.00000000      45.00000000      45.00000000      45.00000000      16.90000000      16.40000000      16.10000000      15.60000000      15.10000000      14.00000000      13.00000000      12.50000000      12.00000000      11.40000000      45.00000000      45.00000000      45.00000000      45.00000000      45.00000000
END GRIDDATA

