# File generated by Flopy version 3.9.1 on 05/16/2025 at 17:24:54.
BEGIN OPTIONS
  TIME_UNITS  seconds
END OPTIONS

BEGIN DIMENSIONS
  NPER  1
END DIMENSIONS

BEGIN PERIODDATA
      10.00000000  1       1.20000000
END PERIODDATA

