# File generated by Flopy version 3.9.1 on 05/16/2025 at 17:24:54.
BEGIN OPTIONS
  SAVE_FLOWS
END OPTIONS

BEGIN GRIDDATA
  iconvert
    CONSTANT  1
  ss
    CONSTANT  1.00000000E-05
  sy
    CONSTANT       0.20000000
END GRIDDATA

BEGIN PERIOD  1
  STEADY-STATE
END PERIOD  1

