# File generated by Flopy version 3.9.1 on 05/16/2025 at 17:24:54.
BEGIN OPTIONS
  READASARRAYS
  PRINT_INPUT
  PRINT_FLOWS
  SAVE_FLOWS
END OPTIONS

BEGIN PERIOD  1
  recharge
    CONSTANT  1.60000000E-09
END PERIOD  1

