# File generated by Flopy version 3.9.1 on 05/16/2025 at 11:06:01.
BEGIN options
END options

BEGIN timing
  TDIS6  mp7-p01-prt.tdis
END timing

BEGIN models
  prt6  mp7-p01-prt.nam  mp7-p01-prt
END models

BEGIN exchanges
END exchanges

BEGIN solutiongroup  1
  ems6  mp7-p01-prt.ems  mp7-p01-prt
END solutiongroup  1

