# File generated by Flopy version 3.9.1 on 05/16/2025 at 11:06:01.
BEGIN options
  LENGTH_UNITS  feet
END options

BEGIN dimensions
  NLAY  3
  NROW  21
  NCOL  20
END dimensions

BEGIN griddata
  delr
    CONSTANT     500.00000000
  delc
    CONSTANT     500.00000000
  top
    CONSTANT     400.00000000
  botm  LAYERED
    CONSTANT     220.00000000
    CONSTANT     200.00000000
    CONSTANT       0.00000000
END griddata

