# File generated by Flopy version 3.9.1 on 05/16/2025 at 11:06:01.
BEGIN options
END options

BEGIN packagedata
  GWFHEAD  FILEIN  ..\gwf\mp7-p01-gwf.hds
  GWFBUDGET  FILEIN  ..\gwf\mp7-p01-gwf.cbb
END packagedata

