# Name file for MODFLOW-2005, generated by Flopy version 3.9.1.
#xll:0.0; yll:0.0; rotation:0.0; units:meters; lenuni:2; start_datetime:1-1-1970
LIST               2  run1_mf.list
DIS               11  run1_mf.dis
BAS6              13  run1_mf.bas
LPF               15  run1_mf.lpf
WEL               20  run1_mf.wel
PCG               27  run1_mf.pcg
LMT6              30  run1_mf.lmt6
