# Name file for MT3DMS, generated by Flopy version 3.9.1.
LIST              16  run1_mt.list
FTL               10  mt3d_link.ftl 
BTN               31  run1_mt.btn
ADV               32  run1_mt.adv
DSP               33  run1_mt.dsp
SSM               34  run1_mt.ssm
GCG               35  run1_mt.gcg
