# File generated by Flopy version 3.8.2 on 01/20/2025 at 15:09:33.
BEGIN options
  PRINT_FLOWS
  SAVE_FLOWS
END options

BEGIN packages
  obs6  symp06_2.obs  obs_1
  riv6  symp06.riv  riv_0
  sto6  symp06.sto  sto
  npf6  symp06.npf  npf
  wel6  symp06_0.wel  wel_1
  dis6  symp06.dis  dis
  oc6  symp06.oc  oc
  ic6  symp06.ic  ic
  rch6  symp06.rcha  rch
  wel6  symp06_1.wel  wel_2
  WEL6  symp06.wel  wel_0
END packages

