# File generated by Flopy version 3.8.2 on 12/28/2024 at 11:16:27.
BEGIN options
END options

BEGIN griddata
  strt  LAYERED
    OPEN/CLOSE  '../data/top.dat'  FACTOR  1.0
    OPEN/CLOSE  '../data/top.dat'  FACTOR  1.0
    OPEN/CLOSE  '../data/top.dat'  FACTOR  1.0
END griddata

