# File generated by Flopy version 3.8.2 on 12/28/2024 at 11:16:27.
BEGIN options
  COMPLEXITY  moderate
END options

BEGIN nonlinear
  OUTER_DVCLOSE       0.00100000
END nonlinear

