# LPF package for MODFLOW-2005 generated by Flopy 3.9.1
         0    -1E+30         0  
         0
         0
   1.000000E+00
         0
         0
INTERNAL               1  (40E15.6) -1 #hk layer 1                    
   5.412218E-04   5.412218E-04   5.412218E-04   5.412218E-04   5.412218E-04   5.412218E-04   5.412218E-04   5.412218E-04   5.412218E-04   5.412218E-04   5.412218E-04   5.412218E-04   5.412218E-04   5.412218E-04   5.412218E-04   5.412218E-04   5.412218E-04   5.412218E-04   5.412218E-04   5.412218E-04   5.412218E-04   5.412218E-04   5.412218E-04   5.412218E-04   5.412218E-04   5.412218E-04   5.412218E-04   5.412218E-04   5.412218E-04   5.412218E-04   5.412218E-04   5.412218E-04   5.412218E-04   5.412218E-04   5.412218E-04   5.412218E-04   5.412218E-04   5.412218E-04   5.412218E-04   5.412218E-04
   5.412218E-04   5.412218E-04   5.412218E-04   5.412218E-04   5.412218E-04   5.412218E-04   5.412218E-04   5.412218E-04   5.412218E-04   5.412218E-04   5.412218E-04   5.412218E-04   5.412218E-04   5.412218E-04   5.412218E-04   5.412218E-04   5.412218E-04   5.412218E-04   5.412218E-04   5.412218E-04   5.412218E-04   5.412218E-04   5.412218E-04   5.412218E-04   5.412218E-04   5.412218E-04   5.412218E-04   5.412218E-04   5.412218E-04   5.412218E-04   5.412218E-04   5.412218E-04   5.412218E-04   5.412218E-04   5.412218E-04   5.412218E-04   5.412218E-04   5.412218E-04   5.412218E-04   5.412218E-04
   5.412218E-04   5.412218E-04   5.412218E-04   5.412218E-04   5.412218E-04   5.412218E-04   5.412218E-04   5.412218E-04   5.412218E-04   5.412218E-04   5.412218E-04   5.412218E-04   5.412218E-04   5.412218E-04   5.412218E-04   5.412218E-04   5.412218E-04   5.412218E-04   5.412218E-04   5.412218E-04   5.412218E-04   5.412218E-04   5.412218E-04   5.412218E-04   5.412218E-04   5.412218E-04   5.412218E-04   5.412218E-04   5.412218E-04   5.412218E-04   5.412218E-04   5.412218E-04   5.412218E-04   5.412218E-04   5.412218E-04   5.412218E-04   5.412218E-04   5.412218E-04   5.412218E-04   5.412218E-04
   5.412218E-04   5.412218E-04   5.412218E-04   5.412218E-04   5.412218E-04   5.412218E-04   5.412218E-04   5.412218E-04   5.412218E-04   5.412218E-04   5.412218E-04   5.412218E-04   5.412218E-04   5.412218E-04   5.412218E-04   5.412218E-04   5.412218E-04   5.412218E-04   5.412218E-04   5.412218E-04   5.412218E-04   5.412218E-04   5.412218E-04   5.412218E-04   5.412218E-04   5.412218E-04   5.412218E-04   5.412218E-04   5.412218E-04   5.412218E-04   5.412218E-04   5.412218E-04   5.412218E-04   5.412218E-04   5.412218E-04   5.412218E-04   5.412218E-04   5.412218E-04   5.412218E-04   5.412218E-04
   5.412218E-04   5.412218E-04   5.412218E-04   5.412218E-04   5.412218E-04   5.412218E-04   5.412218E-04   5.412218E-04   5.412218E-04   5.412218E-04   5.412218E-04   5.412218E-04   5.412218E-04   5.412218E-04   5.412218E-04   5.412218E-04   5.412218E-04   5.412218E-04   5.412218E-04   5.412218E-04   5.412218E-04   5.412218E-04   5.412218E-04   5.412218E-04   5.412218E-04   5.412218E-04   5.412218E-04   5.412218E-04   5.412218E-04   5.412218E-04   5.412218E-04   5.412218E-04   5.412218E-04   5.412218E-04   5.412218E-04   5.412218E-04   5.412218E-04   5.412218E-04   5.412218E-04   5.412218E-04
   5.412218E-04   5.412218E-04   5.412218E-04   5.412218E-04   5.412218E-04   5.412218E-04   5.412218E-04   5.412218E-04   5.412218E-04   5.412218E-04   5.412218E-04   5.412218E-04   5.412218E-04   5.412218E-04   5.412218E-04   5.412218E-04   5.412218E-04   5.412218E-04   5.412218E-04   5.412218E-04   5.412218E-04   5.412218E-04   5.412218E-04   5.412218E-04   5.412218E-04   5.412218E-04   5.412218E-04   5.412218E-04   5.412218E-04   5.412218E-04   5.412218E-04   5.412218E-04   5.412218E-04   5.412218E-04   5.412218E-04   5.412218E-04   5.412218E-04   5.412218E-04   5.412218E-04   5.412218E-04
   5.412218E-04   5.412218E-04   5.412218E-04   5.412218E-04   5.412218E-04   5.412218E-04   5.412218E-04   5.412218E-04   5.412218E-04   5.412218E-04   5.412218E-04   5.412218E-04   5.412218E-04   5.412218E-04   5.412218E-04   5.412218E-04   5.412218E-04   5.412218E-04   5.412218E-04   5.412218E-04   5.412218E-04   5.412218E-04   5.412218E-04   5.412218E-04   5.412218E-04   5.412218E-04   5.412218E-04   5.412218E-04   5.412218E-04   5.412218E-04   5.412218E-04   5.412218E-04   5.412218E-04   5.412218E-04   5.412218E-04   5.412218E-04   5.412218E-04   5.412218E-04   5.412218E-04   5.412218E-04
   5.412218E-04   5.412218E-04   5.412218E-04   5.412218E-04   5.412218E-04   5.412218E-04   5.412218E-04   5.412218E-04   5.412218E-04   5.412218E-04   5.412218E-04   5.412218E-04   5.412218E-04   5.412218E-04   5.412218E-04   5.412218E-04   5.412218E-04   5.412218E-04   5.412218E-04   5.412218E-04   5.412218E-04   5.412218E-04   5.412218E-04   5.412218E-04   5.412218E-04   5.412218E-04   5.412218E-04   5.412218E-04   5.412218E-04   5.412218E-04   5.412218E-04   5.412218E-04   5.412218E-04   5.412218E-04   5.412218E-04   5.412218E-04   5.412218E-04   5.412218E-04   5.412218E-04   5.412218E-04
   5.412218E-04   5.412218E-04   5.412218E-04   5.412218E-04   5.412218E-04   5.412218E-04   5.412218E-04   5.412218E-04   5.412218E-04   5.412218E-04   5.412218E-04   5.412218E-04   5.412218E-04   5.412218E-04   5.412218E-04   5.412218E-04   5.412218E-04   5.412218E-04   5.412218E-04   5.412218E-04   5.412218E-04   5.412218E-04   5.412218E-04   5.412218E-04   5.412218E-04   5.412218E-04   5.412218E-04   5.412218E-04   5.412218E-04   5.412218E-04   5.412218E-04   5.412218E-04   5.412218E-04   5.412218E-04   5.412218E-04   5.412218E-04   5.412218E-04   5.412218E-04   5.412218E-04   5.412218E-04
   5.412218E-04   5.412218E-04   5.412218E-04   5.412218E-04   5.412218E-04   5.412218E-04   5.412218E-04   5.412218E-04   5.412218E-04   5.412218E-04   5.412218E-04   5.412218E-04   5.412218E-04   5.412218E-04   5.412218E-04   5.412218E-04   5.412218E-04   5.412218E-04   5.412218E-04   5.412218E-04   5.412218E-04   5.412218E-04   5.412218E-04   5.412218E-04   5.412218E-04   5.412218E-04   5.412218E-04   5.412218E-04   5.412218E-04   5.412218E-04   5.412218E-04   5.412218E-04   5.412218E-04   5.412218E-04   5.412218E-04   5.412218E-04   5.412218E-04   5.412218E-04   5.412218E-04   5.412218E-04
   5.412218E-04   5.412218E-04   5.412218E-04   5.412218E-04   5.412218E-04   5.412218E-04   5.412218E-04   5.412218E-04   5.412218E-04   5.412218E-04   5.412218E-04   5.412218E-04   5.412218E-04   5.412218E-04   5.412218E-04   5.412218E-04   5.412218E-04   5.412218E-04   5.412218E-04   5.412218E-04   5.412218E-04   5.412218E-04   5.412218E-04   5.412218E-04   5.412218E-04   5.412218E-04   5.412218E-04   5.412218E-04   5.412218E-04   5.412218E-04   5.412218E-04   5.412218E-04   5.412218E-04   5.412218E-04   5.412218E-04   5.412218E-04   5.412218E-04   5.412218E-04   5.412218E-04   5.412218E-04
   5.412218E-04   5.412218E-04   5.412218E-04   5.412218E-04   5.412218E-04   5.412218E-04   5.412218E-04   5.412218E-04   5.412218E-04   5.412218E-04   5.412218E-04   5.412218E-04   5.412218E-04   5.412218E-04   5.412218E-04   5.412218E-04   5.412218E-04   5.412218E-04   5.412218E-04   5.412218E-04   5.412218E-04   5.412218E-04   5.412218E-04   5.412218E-04   5.412218E-04   5.412218E-04   5.412218E-04   5.412218E-04   5.412218E-04   5.412218E-04   5.412218E-04   5.412218E-04   5.412218E-04   5.412218E-04   5.412218E-04   5.412218E-04   5.412218E-04   5.412218E-04   5.412218E-04   5.412218E-04
   5.412218E-04   5.412218E-04   5.412218E-04   5.412218E-04   5.412218E-04   5.412218E-04   5.412218E-04   5.412218E-04   5.412218E-04   5.412218E-04   5.412218E-04   5.412218E-04   5.412218E-04   5.412218E-04   5.412218E-04   5.412218E-04   5.412218E-04   5.412218E-04   5.412218E-04   5.412218E-04   5.412218E-04   5.412218E-04   5.412218E-04   5.412218E-04   5.412218E-04   5.412218E-04   5.412218E-04   5.412218E-04   5.412218E-04   5.412218E-04   5.412218E-04   5.412218E-04   5.412218E-04   5.412218E-04   5.412218E-04   5.412218E-04   5.412218E-04   5.412218E-04   5.412218E-04   5.412218E-04
   5.412218E-04   5.412218E-04   5.412218E-04   5.412218E-04   5.412218E-04   5.412218E-04   5.412218E-04   5.412218E-04   5.412218E-04   5.412218E-04   5.412218E-04   5.412218E-04   5.412218E-04   5.412218E-04   5.412218E-04   5.412218E-04   5.412218E-04   5.412218E-04   5.412218E-04   5.412218E-04   5.412218E-04   5.412218E-04   5.412218E-04   5.412218E-04   5.412218E-04   5.412218E-04   5.412218E-04   5.412218E-04   5.412218E-04   5.412218E-04   5.412218E-04   5.412218E-04   5.412218E-04   5.412218E-04   5.412218E-04   5.412218E-04   5.412218E-04   5.412218E-04   5.412218E-04   5.412218E-04
   5.412218E-04   5.412218E-04   5.412218E-04   5.412218E-04   5.412218E-04   5.412218E-04   5.412218E-04   5.412218E-04   5.412218E-04   5.412218E-04   5.412218E-04   5.412218E-04   5.412218E-04   5.412218E-04   5.412218E-04   5.412218E-04   5.412218E-04   5.412218E-04   5.412218E-04   5.412218E-04   5.412218E-04   5.412218E-04   5.412218E-04   5.412218E-04   5.412218E-04   5.412218E-04   5.412218E-04   5.412218E-04   5.412218E-04   5.412218E-04   5.412218E-04   5.412218E-04   5.412218E-04   5.412218E-04   5.412218E-04   5.412218E-04   5.412218E-04   5.412218E-04   5.412218E-04   5.412218E-04
   5.412218E-04   5.412218E-04   5.412218E-04   5.412218E-04   5.412218E-04   5.412218E-04   5.412218E-04   5.412218E-04   5.412218E-04   5.412218E-04   5.412218E-04   5.412218E-04   5.412218E-04   5.412218E-04   5.412218E-04   5.412218E-04   5.412218E-04   5.412218E-04   5.412218E-04   5.412218E-04   5.412218E-04   5.412218E-04   5.412218E-04   5.412218E-04   5.412218E-04   5.412218E-04   5.412218E-04   5.412218E-04   5.412218E-04   5.412218E-04   5.412218E-04   5.412218E-04   5.412218E-04   5.412218E-04   5.412218E-04   5.412218E-04   5.412218E-04   5.412218E-04   5.412218E-04   5.412218E-04
   5.412218E-04   5.412218E-04   5.412218E-04   5.412218E-04   5.412218E-04   5.412218E-04   5.412218E-04   5.412218E-04   5.412218E-04   5.412218E-04   5.412218E-04   5.412218E-04   5.412218E-04   5.412218E-04   5.412218E-04   5.412218E-04   5.412218E-04   5.412218E-04   5.412218E-04   5.412218E-04   5.412218E-04   5.412218E-04   5.412218E-04   5.412218E-04   5.412218E-04   5.412218E-04   5.412218E-04   5.412218E-04   5.412218E-04   5.412218E-04   5.412218E-04   5.412218E-04   5.412218E-04   5.412218E-04   5.412218E-04   5.412218E-04   5.412218E-04   5.412218E-04   5.412218E-04   5.412218E-04
   5.412218E-04   5.412218E-04   5.412218E-04   5.412218E-04   5.412218E-04   5.412218E-04   5.412218E-04   5.412218E-04   5.412218E-04   5.412218E-04   5.412218E-04   5.412218E-04   5.412218E-04   5.412218E-04   5.412218E-04   5.412218E-04   5.412218E-04   5.412218E-04   5.412218E-04   5.412218E-04   5.412218E-04   5.412218E-04   5.412218E-04   5.412218E-04   5.412218E-04   5.412218E-04   5.412218E-04   5.412218E-04   5.412218E-04   5.412218E-04   5.412218E-04   5.412218E-04   5.412218E-04   5.412218E-04   5.412218E-04   5.412218E-04   5.412218E-04   5.412218E-04   5.412218E-04   5.412218E-04
   5.412218E-04   5.412218E-04   5.412218E-04   5.412218E-04   5.412218E-04   5.412218E-04   5.412218E-04   5.412218E-04   5.412218E-04   5.412218E-04   5.412218E-04   5.412218E-04   5.412218E-04   5.412218E-04   5.412218E-04   5.412218E-04   5.412218E-04   5.412218E-04   5.412218E-04   5.412218E-04   5.412218E-04   5.412218E-04   5.412218E-04   5.412218E-04   5.412218E-04   5.412218E-04   5.412218E-04   5.412218E-04   5.412218E-04   5.412218E-04   5.412218E-04   5.412218E-04   5.412218E-04   5.412218E-04   5.412218E-04   5.412218E-04   5.412218E-04   5.412218E-04   5.412218E-04   5.412218E-04
   5.412218E-04   5.412218E-04   5.412218E-04   5.412218E-04   5.412218E-04   5.412218E-04   5.412218E-04   5.412218E-04   5.412218E-04   5.412218E-04   5.412218E-04   5.412218E-04   5.412218E-04   5.412218E-04   5.412218E-04   5.412218E-04   5.412218E-04   5.412218E-04   5.412218E-04   5.412218E-04   5.412218E-04   5.412218E-04   5.412218E-04   5.412218E-04   5.412218E-04   5.412218E-04   5.412218E-04   5.412218E-04   5.412218E-04   5.412218E-04   5.412218E-04   5.412218E-04   5.412218E-04   5.412218E-04   5.412218E-04   5.412218E-04   5.412218E-04   5.412218E-04   5.412218E-04   5.412218E-04
CONSTANT    1.000000E+00                           #vka1                          
