# File generated by Flopy version 3.9.1 on 02/13/2025 at 11:22:58.
BEGIN options
  SCHEME  upstream
END options

