# File generated by Flopy version 3.9.1 on 02/26/2025 at 10:50:23.
BEGIN options
  SAVE_FLOWS
END options

BEGIN packages
  dis6  gwf-p07-mf6.dis  dis
  npf6  gwf-p07-mf6.npf  npf
  ic6  gwf-p07-mf6.ic  ic
  chd6  gwf-p07-mf6.chd  chd-1
  wel6  gwf-p07-mf6.wel  wel-1
  oc6  gwf-p07-mf6.oc  oc
END packages

