# File generated by Flopy version 3.9.1 on 02/26/2025 at 10:50:23.
BEGIN options
END options

BEGIN griddata
  porosity
    CONSTANT       0.20000000
END griddata

