# File generated by Flopy version 3.9.1 on 02/17/2025 at 08:26:36.
BEGIN options
END options

BEGIN sources
  WEL-1  AUX  CONCENTRATION
END sources

