# File generated by Flopy version 3.8.2 on 01/12/2025 at 09:50:28.
BEGIN options
  BUDGET  FILEOUT  mf6lake.cbb
  HEAD  FILEOUT  mf6lake.hds
END options

BEGIN period  1
  SAVE  HEAD  ALL
  SAVE  BUDGET  ALL
  PRINT  HEAD  LAST
END period  1

