# File generated by Flopy version 3.8.2 on 01/12/2025 at 09:50:28.
BEGIN options
  SAVE_FLOWS
END options

BEGIN griddata
  icelltype
    CONSTANT  1
  k
    CONSTANT       1.00000000
END griddata

