# File generated by Flopy version 3.8.2 on 01/12/2025 at 09:50:28.
BEGIN options
  COMPLEXITY  simple
END options

