# File generated by Flopy version 3.9.1 on 04/08/2025 at 08:54:48.
BEGIN options
  SAVE_FLOWS
END options

BEGIN packages
  DISV6  06_ex-gwf-u1disv.disv  disv
  NPF6  06_ex-gwf-u1disv.npf  npf
  IC6  06_ex-gwf-u1disv.ic  ic
  CHD6  06_ex-gwf-u1disv.left.chd  chd-l
  CHD6  06_ex-gwf-u1disv.right.chd  chd-r
  OC6  06_ex-gwf-u1disv.oc  oc
END packages

