# File generated by Flopy version 3.9.1 on 04/08/2025 at 08:54:48.
BEGIN options
END options

BEGIN timing
  TDIS6  06_ex-gwf-u1disv.tdis
END timing

BEGIN models
  gwf6  06_ex-gwf-u1disv.nam  06_ex-gwf-u1disv
END models

BEGIN exchanges
END exchanges

BEGIN solutiongroup  1
  ims6  06_ex-gwf-u1disv.ims  06_ex-gwf-u1disv
END solutiongroup  1

