# BAS6 package for MODFLOW-NWT generated by Flopy 3.8.2
FREE
INTERNAL               1   (100I10) -1 #ibound layer 1                
         1         1         1         1         1         1         1         1         1         1         1         1         1         1         1         1         1         1         1         1         1         1         1         1         1         1         1         1         1         1         1         1         1         1         1         1         1         1         1         1         1         1         1         1         1         1         1         1         1         1         1         1         1         1         1         1         1         1         1         1         1         1         1         1         1         1         1         1         1         1         1         1         1         1         1         1         1         1         1         1         1         1         1         1         1         1         1         1         1         1         1         1         1         1         1         1         1         1         1         1
   -999.99
INTERNAL               1 (100E15.6) -1 #strt layer 1                  
  -1.000000E+01  -1.000000E+01  -1.000000E+01  -1.000000E+01  -1.000000E+01  -1.000000E+01  -1.000000E+01  -1.000000E+01  -1.000000E+01  -1.000000E+01  -1.000000E+01  -1.000000E+01  -1.000000E+01  -1.000000E+01  -1.000000E+01  -1.000000E+01  -1.000000E+01  -1.000000E+01  -1.000000E+01  -1.000000E+01  -1.000000E+01  -1.000000E+01  -1.000000E+01  -1.000000E+01  -1.000000E+01  -1.000000E+01  -1.000000E+01  -1.000000E+01  -1.000000E+01  -1.000000E+01  -1.000000E+01  -1.000000E+01  -1.000000E+01  -1.000000E+01  -1.000000E+01  -1.000000E+01  -1.000000E+01  -1.000000E+01  -1.000000E+01  -1.000000E+01  -1.000000E+01  -1.000000E+01  -1.000000E+01  -1.000000E+01  -1.000000E+01  -1.000000E+01  -1.000000E+01  -1.000000E+01  -1.000000E+01  -1.000000E+01  -1.000000E+01  -1.000000E+01  -1.000000E+01  -1.000000E+01  -1.000000E+01  -1.000000E+01  -1.000000E+01  -1.000000E+01  -1.000000E+01  -1.000000E+01  -1.000000E+01  -1.000000E+01  -1.000000E+01  -1.000000E+01  -1.000000E+01  -1.000000E+01  -1.000000E+01  -1.000000E+01  -1.000000E+01  -1.000000E+01  -1.000000E+01  -1.000000E+01  -1.000000E+01  -1.000000E+01  -1.000000E+01  -1.000000E+01  -1.000000E+01  -1.000000E+01  -1.000000E+01  -1.000000E+01  -1.000000E+01  -1.000000E+01  -1.000000E+01  -1.000000E+01  -1.000000E+01  -1.000000E+01  -1.000000E+01  -1.000000E+01  -1.000000E+01  -1.000000E+01  -1.000000E+01  -1.000000E+01  -1.000000E+01  -1.000000E+01  -1.000000E+01  -1.000000E+01  -1.000000E+01  -1.000000E+01  -1.000000E+01  -1.000000E+01
