# File generated by Flopy version 3.9.1 on 05/19/2025 at 10:16:01.
BEGIN options
  BUDGET  FILEOUT  ex01_mf6.cbc
  HEAD  FILEOUT  ex01_mf6.hds
END options

BEGIN period  1
  SAVE  HEAD  ALL
  SAVE  BUDGET  ALL
  PRINT  HEAD  ALL
  PRINT  BUDGET  ALL
END period  1

