MODPATH_TIMESERIES_FILE         7         2
    1   0.0000000000E+00  0.0000000000E+00  0.0000000000E+00  0.0000000000E+00
END HEADER
       0       1  0.0000000000E+00         1    1      1001         3  0.5000000000E+00  0.5000000000E+00  0.5000000000E+00  0.8750000000E+03  0.1015000000E+05  0.2826571483E+03         1
       0       1  0.0000000000E+00         2    1      1002        33  0.5000000000E+00  0.5000000000E+00  0.5000000000E+00  0.8750000000E+03  0.9450000000E+04  0.2826232872E+03         1
       0       1  0.0000000000E+00         3    1      1003        63  0.5000000000E+00  0.5000000000E+00  0.5000000000E+00  0.8750000000E+03  0.8750000000E+04  0.2825562245E+03         1
       0       1  0.0000000000E+00         4    1      1004        93  0.5000000000E+00  0.5000000000E+00  0.5000000000E+00  0.8750000000E+03  0.8050000000E+04  0.2824574180E+03         1
       0       1  0.0000000000E+00         5    1      1005       513  0.5000000000E+00  0.5000000000E+00  0.5000000000E+00  0.8750000000E+03  0.8750000000E+04  0.2100000000E+03         2
       0       1  0.0000000000E+00         6    1      1006       543  0.5000000000E+00  0.5000000000E+00  0.5000000000E+00  0.8750000000E+03  0.8050000000E+04  0.2100000000E+03         2
       0       1  0.0000000000E+00         7    1      1007       573  0.5000000000E+00  0.5000000000E+00  0.5000000000E+00  0.8750000000E+03  0.7350000000E+04  0.2100000000E+03         2
       0       1  0.0000000000E+00         8    1      1008       603  0.5000000000E+00  0.5000000000E+00  0.5000000000E+00  0.8750000000E+03  0.6650000000E+04  0.2100000000E+03         2
       1       1  0.1000000000E-01         1    1      1001         3  0.5000041168E+00  0.4999996546E+00  0.4999991763E+00  0.8750014409E+03  0.1014999976E+05  0.2826570451E+03         1
       1       1  0.1000000000E-01         2    1      1002        33  0.5000041130E+00  0.4999989704E+00  0.4999991669E+00  0.8750014396E+03  0.9449999279E+04  0.2826231828E+03         1
       1       1  0.1000000000E-01         3    1      1003        63  0.5000041092E+00  0.4999983079E+00  0.4999991473E+00  0.8750014382E+03  0.8749998816E+04  0.2825561178E+03         1
       1       1  0.1000000000E-01         4    1      1004        93  0.5000041135E+00  0.4999976861E+00  0.4999991160E+00  0.8750014397E+03  0.8049998380E+04  0.2824573076E+03         1
       1       1  0.1000000000E-01         5    1      1005       513  0.5000000001E+00  0.5000000000E+00  0.4999893314E+00  0.8750000000E+03  0.8750000000E+04  0.2099997866E+03         2
       1       1  0.1000000000E-01         6    1      1006       543  0.5000000001E+00  0.4999999999E+00  0.4999889580E+00  0.8750000000E+03  0.8050000000E+04  0.2099997792E+03         2
       1       1  0.1000000000E-01         7    1      1007       573  0.5000000001E+00  0.4999999999E+00  0.4999884195E+00  0.8750000000E+03  0.7350000000E+04  0.2099997684E+03         2
       1       1  0.1000000000E-01         8    1      1008       603  0.5000000001E+00  0.4999999999E+00  0.4999876870E+00  0.8750000000E+03  0.6650000000E+04  0.2099997537E+03         2
       2       1  0.2000000000E-01         1    1      1001         3  0.5000082335E+00  0.4999993091E+00  0.4999983526E+00  0.8750028817E+03  0.1014999952E+05  0.2826569419E+03         1
       2       1  0.2000000000E-01         2    1      1002        33  0.5000082260E+00  0.4999979409E+00  0.4999983337E+00  0.8750028791E+03  0.9449998559E+04  0.2826230785E+03         1
       2       1  0.2000000000E-01         3    1      1003        63  0.5000082185E+00  0.4999966158E+00  0.4999982946E+00  0.8750028765E+03  0.8749997631E+04  0.2825560111E+03         1
       2       1  0.2000000000E-01         4    1      1004        93  0.5000082271E+00  0.4999953723E+00  0.4999982321E+00  0.8750028795E+03  0.8049996761E+04  0.2824571972E+03         1
       2       1  0.2000000000E-01         5    1      1005       513  0.5000000002E+00  0.4999999999E+00  0.4999786629E+00  0.8750000001E+03  0.8750000000E+04  0.2099995733E+03         2
       2       1  0.2000000000E-01         6    1      1006       543  0.5000000002E+00  0.4999999999E+00  0.4999779159E+00  0.8750000001E+03  0.8050000000E+04  0.2099995583E+03         2
       2       1  0.2000000000E-01         7    1      1007       573  0.5000000002E+00  0.4999999998E+00  0.4999768389E+00  0.8750000001E+03  0.7350000000E+04  0.2099995368E+03         2
       2       1  0.2000000000E-01         8    1      1008       603  0.5000000002E+00  0.4999999998E+00  0.4999753740E+00  0.8750000001E+03  0.6650000000E+04  0.2099995075E+03         2
       3       1  0.3000000000E-01         1    1      1001         3  0.5000123503E+00  0.4999989637E+00  0.4999975289E+00  0.8750043226E+03  0.1014999927E+05  0.2826568386E+03         1
       3       1  0.3000000000E-01         2    1      1002        33  0.5000123390E+00  0.4999969113E+00  0.4999975006E+00  0.8750043187E+03  0.9449997838E+04  0.2826229741E+03         1
       3       1  0.3000000000E-01         3    1      1003        63  0.5000123277E+00  0.4999949237E+00  0.4999974418E+00  0.8750043147E+03  0.8749996447E+04  0.2825559044E+03         1
       3       1  0.3000000000E-01         4    1      1004        93  0.5000123407E+00  0.4999930584E+00  0.4999973481E+00  0.8750043192E+03  0.8049995141E+04  0.2824570868E+03         1
       3       1  0.3000000000E-01         5    1      1005       513  0.5000000002E+00  0.4999999999E+00  0.4999679943E+00  0.8750000001E+03  0.8750000000E+04  0.2099993599E+03         2
       3       1  0.3000000000E-01         6    1      1006       543  0.5000000002E+00  0.4999999998E+00  0.4999668739E+00  0.8750000001E+03  0.8050000000E+04  0.2099993375E+03         2
       3       1  0.3000000000E-01         7    1      1007       573  0.5000000002E+00  0.4999999997E+00  0.4999652584E+00  0.8750000001E+03  0.7350000000E+04  0.2099993052E+03         2
       3       1  0.3000000000E-01         8    1      1008       603  0.5000000003E+00  0.4999999997E+00  0.4999630610E+00  0.8750000001E+03  0.6650000000E+04  0.2099992612E+03         2
       4       1  0.4000000000E-01         1    1      1001         3  0.5000164671E+00  0.4999986183E+00  0.4999967052E+00  0.8750057635E+03  0.1014999903E+05  0.2826567354E+03         1
       4       1  0.4000000000E-01         2    1      1002        33  0.5000164521E+00  0.4999958817E+00  0.4999966675E+00  0.8750057582E+03  0.9449997117E+04  0.2826228698E+03         1
       4       1  0.4000000000E-01         3    1      1003        63  0.5000164370E+00  0.4999932315E+00  0.4999965891E+00  0.8750057529E+03  0.8749995262E+04  0.2825557978E+03         1
       4       1  0.4000000000E-01         4    1      1004        93  0.5000164542E+00  0.4999907445E+00  0.4999964641E+00  0.8750057590E+03  0.8049993521E+04  0.2824569763E+03         1
       4       1  0.4000000000E-01         5    1      1005       513  0.5000000003E+00  0.4999999998E+00  0.4999573257E+00  0.8750000001E+03  0.8750000000E+04  0.2099991465E+03         2
       4       1  0.4000000000E-01         6    1      1006       543  0.5000000003E+00  0.4999999997E+00  0.4999558318E+00  0.8750000001E+03  0.8050000000E+04  0.2099991166E+03         2
       4       1  0.4000000000E-01         7    1      1007       573  0.5000000003E+00  0.4999999997E+00  0.4999536779E+00  0.8750000001E+03  0.7350000000E+04  0.2099990736E+03         2
       4       1  0.4000000000E-01         8    1      1008       603  0.5000000004E+00  0.4999999996E+00  0.4999507479E+00  0.8750000001E+03  0.6650000000E+04  0.2099990150E+03         2
       5       1  0.5000000000E-01         1    1      1001         3  0.5000205839E+00  0.4999982729E+00  0.4999958814E+00  0.8750072044E+03  0.1014999879E+05  0.2826566322E+03         1
       5       1  0.5000000000E-01         2    1      1002        33  0.5000205651E+00  0.4999948522E+00  0.4999958343E+00  0.8750071978E+03  0.9449996397E+04  0.2826227655E+03         1
       5       1  0.5000000000E-01         3    1      1003        63  0.5000205462E+00  0.4999915394E+00  0.4999957364E+00  0.8750071912E+03  0.8749994078E+04  0.2825556911E+03         1
       5       1  0.5000000000E-01         4    1      1004        93  0.5000205678E+00  0.4999884306E+00  0.4999955801E+00  0.8750071987E+03  0.8049991901E+04  0.2824568659E+03         1
       5       1  0.5000000000E-01         5    1      1005       513  0.5000000004E+00  0.4999999998E+00  0.4999466572E+00  0.8750000001E+03  0.8750000000E+04  0.2099989331E+03         2
       5       1  0.5000000000E-01         6    1      1006       543  0.5000000004E+00  0.4999999997E+00  0.4999447898E+00  0.8750000001E+03  0.8050000000E+04  0.2099988958E+03         2
       5       1  0.5000000000E-01         7    1      1007       573  0.5000000004E+00  0.4999999996E+00  0.4999420973E+00  0.8750000001E+03  0.7350000000E+04  0.2099988419E+03         2
       5       1  0.5000000000E-01         8    1      1008       603  0.5000000005E+00  0.4999999995E+00  0.4999384349E+00  0.8750000002E+03  0.6650000000E+04  0.2099987687E+03         2
       6       1  0.6000000000E-01         1    1      1001         3  0.5000247007E+00  0.4999979274E+00  0.4999950577E+00  0.8750086452E+03  0.1014999855E+05  0.2826565290E+03         1
       6       1  0.6000000000E-01         2    1      1002        33  0.5000246782E+00  0.4999938226E+00  0.4999950012E+00  0.8750086374E+03  0.9449995676E+04  0.2826226611E+03         1
       6       1  0.6000000000E-01         3    1      1003        63  0.5000246555E+00  0.4999898473E+00  0.4999948836E+00  0.8750086294E+03  0.8749992893E+04  0.2825555844E+03         1
       6       1  0.6000000000E-01         4    1      1004        93  0.5000246814E+00  0.4999861168E+00  0.4999946962E+00  0.8750086385E+03  0.8049990282E+04  0.2824567555E+03         1
       6       1  0.6000000000E-01         5    1      1005       513  0.5000000005E+00  0.4999999997E+00  0.4999359886E+00  0.8750000002E+03  0.8750000000E+04  0.2099987198E+03         2
       6       1  0.6000000000E-01         6    1      1006       543  0.5000000005E+00  0.4999999996E+00  0.4999337478E+00  0.8750000002E+03  0.8050000000E+04  0.2099986750E+03         2
       6       1  0.6000000000E-01         7    1      1007       573  0.5000000005E+00  0.4999999995E+00  0.4999305168E+00  0.8750000002E+03  0.7350000000E+04  0.2099986103E+03         2
       6       1  0.6000000000E-01         8    1      1008       603  0.5000000005E+00  0.4999999994E+00  0.4999261219E+00  0.8750000002E+03  0.6650000000E+04  0.2099985224E+03         2
       7       1  0.7000000000E-01         1    1      1001         3  0.5000288175E+00  0.4999975820E+00  0.4999942340E+00  0.8750100861E+03  0.1014999831E+05  0.2826564257E+03         1
       7       1  0.7000000000E-01         2    1      1002        33  0.5000287912E+00  0.4999927931E+00  0.4999941681E+00  0.8750100769E+03  0.9449994955E+04  0.2826225568E+03         1
       7       1  0.7000000000E-01         3    1      1003        63  0.5000287648E+00  0.4999881552E+00  0.4999940309E+00  0.8750100677E+03  0.8749991709E+04  0.2825554777E+03         1
       7       1  0.7000000000E-01         4    1      1004        93  0.5000287950E+00  0.4999838029E+00  0.4999938122E+00  0.8750100782E+03  0.8049988662E+04  0.2824566451E+03         1
       7       1  0.7000000000E-01         5    1      1005       513  0.5000000005E+00  0.4999999997E+00  0.4999253200E+00  0.8750000002E+03  0.8750000000E+04  0.2099985064E+03         2
       7       1  0.7000000000E-01         6    1      1006       543  0.5000000006E+00  0.4999999995E+00  0.4999227057E+00  0.8750000002E+03  0.8050000000E+04  0.2099984541E+03         2
       7       1  0.7000000000E-01         7    1      1007       573  0.5000000006E+00  0.4999999994E+00  0.4999189363E+00  0.8750000002E+03  0.7350000000E+04  0.2099983787E+03         2
       7       1  0.7000000000E-01         8    1      1008       603  0.5000000006E+00  0.4999999993E+00  0.4999138089E+00  0.8750000002E+03  0.6650000000E+04  0.2099982762E+03         2
       8       1  0.8000000000E-01         1    1      1001         3  0.5000329343E+00  0.4999972366E+00  0.4999934103E+00  0.8750115270E+03  0.1014999807E+05  0.2826563225E+03         1
       8       1  0.8000000000E-01         2    1      1002        33  0.5000329043E+00  0.4999917635E+00  0.4999933349E+00  0.8750115165E+03  0.9449994234E+04  0.2826224524E+03         1
       8       1  0.8000000000E-01         3    1      1003        63  0.5000328741E+00  0.4999864631E+00  0.4999931782E+00  0.8750115059E+03  0.8749990524E+04  0.2825553710E+03         1
       8       1  0.8000000000E-01         4    1      1004        93  0.5000329085E+00  0.4999814890E+00  0.4999929282E+00  0.8750115180E+03  0.8049987042E+04  0.2824565347E+03         1
       8       1  0.8000000000E-01         5    1      1005       513  0.5000000006E+00  0.4999999996E+00  0.4999146515E+00  0.8750000002E+03  0.8750000000E+04  0.2099982930E+03         2
       8       1  0.8000000000E-01         6    1      1006       543  0.5000000006E+00  0.4999999995E+00  0.4999116637E+00  0.8750000002E+03  0.8050000000E+04  0.2099982333E+03         2
       8       1  0.8000000000E-01         7    1      1007       573  0.5000000007E+00  0.4999999993E+00  0.4999073557E+00  0.8750000002E+03  0.7350000000E+04  0.2099981471E+03         2
       8       1  0.8000000000E-01         8    1      1008       603  0.5000000007E+00  0.4999999992E+00  0.4999014959E+00  0.8750000003E+03  0.6649999999E+04  0.2099980299E+03         2
       9       1  0.9000000000E-01         1    1      1001         3  0.5000370511E+00  0.4999968911E+00  0.4999925866E+00  0.8750129679E+03  0.1014999782E+05  0.2826562193E+03         1
       9       1  0.9000000000E-01         2    1      1002        33  0.5000370173E+00  0.4999907339E+00  0.4999925018E+00  0.8750129561E+03  0.9449993514E+04  0.2826223481E+03         1
       9       1  0.9000000000E-01         3    1      1003        63  0.5000369834E+00  0.4999847709E+00  0.4999923254E+00  0.8750129442E+03  0.8749989340E+04  0.2825552643E+03         1
       9       1  0.9000000000E-01         4    1      1004        93  0.5000370221E+00  0.4999791751E+00  0.4999920442E+00  0.8750129578E+03  0.8049985423E+04  0.2824564242E+03         1
       9       1  0.9000000000E-01         5    1      1005       513  0.5000000007E+00  0.4999999996E+00  0.4999039829E+00  0.8750000002E+03  0.8750000000E+04  0.2099980797E+03         2
       9       1  0.9000000000E-01         6    1      1006       543  0.5000000007E+00  0.4999999994E+00  0.4999006216E+00  0.8750000002E+03  0.8050000000E+04  0.2099980124E+03         2
       9       1  0.9000000000E-01         7    1      1007       573  0.5000000007E+00  0.4999999992E+00  0.4998957752E+00  0.8750000003E+03  0.7349999999E+04  0.2099979155E+03         2
       9       1  0.9000000000E-01         8    1      1008       603  0.5000000008E+00  0.4999999991E+00  0.4998891829E+00  0.8750000003E+03  0.6649999999E+04  0.2099977837E+03         2
      10       1  0.1000000000E+00         1    1      1001         3  0.5000411679E+00  0.4999965457E+00  0.4999917628E+00  0.8750144088E+03  0.1014999758E+05  0.2826561161E+03         1
      10       1  0.1000000000E+00         2    1      1002        33  0.5000411304E+00  0.4999897043E+00  0.4999916686E+00  0.8750143956E+03  0.9449992793E+04  0.2826222437E+03         1
      10       1  0.1000000000E+00         3    1      1003        63  0.5000410926E+00  0.4999830788E+00  0.4999914727E+00  0.8750143824E+03  0.8749988155E+04  0.2825551576E+03         1
      10       1  0.1000000000E+00         4    1      1004        93  0.5000411358E+00  0.4999768613E+00  0.4999911602E+00  0.8750143975E+03  0.8049983803E+04  0.2824563138E+03         1
      10       1  0.1000000000E+00         5    1      1005       513  0.5000000008E+00  0.4999999995E+00  0.4998933143E+00  0.8750000003E+03  0.8750000000E+04  0.2099978663E+03         2
      10       1  0.1000000000E+00         6    1      1006       543  0.5000000008E+00  0.4999999993E+00  0.4998895796E+00  0.8750000003E+03  0.8050000000E+04  0.2099977916E+03         2
      10       1  0.1000000000E+00         7    1      1007       573  0.5000000008E+00  0.4999999992E+00  0.4998841947E+00  0.8750000003E+03  0.7349999999E+04  0.2099976839E+03         2
      10       1  0.1000000000E+00         8    1      1008       603  0.5000000009E+00  0.4999999990E+00  0.4998768699E+00  0.8750000003E+03  0.6649999999E+04  0.2099975374E+03         2
      11       1  0.1100000000E+00         1    1      1001         3  0.5000452848E+00  0.4999962003E+00  0.4999909391E+00  0.8750158497E+03  0.1014999734E+05  0.2826560129E+03         1
      11       1  0.1100000000E+00         2    1      1002        33  0.5000452435E+00  0.4999886748E+00  0.4999908355E+00  0.8750158352E+03  0.9449992072E+04  0.2826221394E+03         1
      11       1  0.1100000000E+00         3    1      1003        63  0.5000452019E+00  0.4999813867E+00  0.4999906200E+00  0.8750158207E+03  0.8749986971E+04  0.2825550509E+03         1
      11       1  0.1100000000E+00         4    1      1004        93  0.5000452494E+00  0.4999745474E+00  0.4999902762E+00  0.8750158373E+03  0.8049982183E+04  0.2824562034E+03         1
      11       1  0.1100000000E+00         5    1      1005       513  0.5000000009E+00  0.4999999995E+00  0.4998826458E+00  0.8750000003E+03  0.8750000000E+04  0.2099976529E+03         2
      11       1  0.1100000000E+00         6    1      1006       543  0.5000000009E+00  0.4999999993E+00  0.4998785376E+00  0.8750000003E+03  0.8049999999E+04  0.2099975708E+03         2
      11       1  0.1100000000E+00         7    1      1007       573  0.5000000009E+00  0.4999999991E+00  0.4998726141E+00  0.8750000003E+03  0.7349999999E+04  0.2099974523E+03         2
      11       1  0.1100000000E+00         8    1      1008       603  0.5000000010E+00  0.4999999989E+00  0.4998645569E+00  0.8750000003E+03  0.6649999999E+04  0.2099972911E+03         2
      12       1  0.1200000000E+00         1    1      1001         3  0.5000494016E+00  0.4999958548E+00  0.4999901154E+00  0.8750172906E+03  0.1014999710E+05  0.2826559096E+03         1
      12       1  0.1200000000E+00         2    1      1002        33  0.5000493566E+00  0.4999876452E+00  0.4999900023E+00  0.8750172748E+03  0.9449991352E+04  0.2826220350E+03         1
      12       1  0.1200000000E+00         3    1      1003        63  0.5000493113E+00  0.4999796946E+00  0.4999897672E+00  0.8750172589E+03  0.8749985786E+04  0.2825549443E+03         1
      12       1  0.1200000000E+00         4    1      1004        93  0.5000493630E+00  0.4999722335E+00  0.4999893923E+00  0.8750172770E+03  0.8049980563E+04  0.2824560930E+03         1
      12       1  0.1200000000E+00         5    1      1005       513  0.5000000009E+00  0.4999999994E+00  0.4998719772E+00  0.8750000003E+03  0.8750000000E+04  0.2099974395E+03         2
      12       1  0.1200000000E+00         6    1      1006       543  0.5000000010E+00  0.4999999992E+00  0.4998674955E+00  0.8750000003E+03  0.8049999999E+04  0.2099973499E+03         2
      12       1  0.1200000000E+00         7    1      1007       573  0.5000000010E+00  0.4999999990E+00  0.4998610336E+00  0.8750000003E+03  0.7349999999E+04  0.2099972207E+03         2
      12       1  0.1200000000E+00         8    1      1008       603  0.5000000011E+00  0.4999999988E+00  0.4998522438E+00  0.8750000004E+03  0.6649999999E+04  0.2099970449E+03         2
      13       1  0.1300000000E+00         1    1      1001         3  0.5000535184E+00  0.4999955094E+00  0.4999892917E+00  0.8750187315E+03  0.1014999686E+05  0.2826558064E+03         1
      13       1  0.1300000000E+00         2    1      1002        33  0.5000534697E+00  0.4999866156E+00  0.4999891692E+00  0.8750187144E+03  0.9449990631E+04  0.2826219307E+03         1
      13       1  0.1300000000E+00         3    1      1003        63  0.5000534206E+00  0.4999780025E+00  0.4999889145E+00  0.8750186972E+03  0.8749984602E+04  0.2825548376E+03         1
      13       1  0.1300000000E+00         4    1      1004        93  0.5000534766E+00  0.4999699196E+00  0.4999885083E+00  0.8750187168E+03  0.8049978944E+04  0.2824559825E+03         1
      13       1  0.1300000000E+00         5    1      1005       513  0.5000000010E+00  0.4999999994E+00  0.4998613087E+00  0.8750000004E+03  0.8750000000E+04  0.2099972262E+03         2
      13       1  0.1300000000E+00         6    1      1006       543  0.5000000010E+00  0.4999999992E+00  0.4998564535E+00  0.8750000004E+03  0.8049999999E+04  0.2099971291E+03         2
      13       1  0.1300000000E+00         7    1      1007       573  0.5000000011E+00  0.4999999989E+00  0.4998494531E+00  0.8750000004E+03  0.7349999999E+04  0.2099969891E+03         2
      13       1  0.1300000000E+00         8    1      1008       603  0.5000000012E+00  0.4999999987E+00  0.4998399308E+00  0.8750000004E+03  0.6649999999E+04  0.2099967986E+03         2
      14       1  0.1400000000E+00         1    1      1001         3  0.5000576353E+00  0.4999951640E+00  0.4999884679E+00  0.8750201723E+03  0.1014999661E+05  0.2826557032E+03         1
      14       1  0.1400000000E+00         2    1      1002        33  0.5000575828E+00  0.4999855861E+00  0.4999883361E+00  0.8750201540E+03  0.9449989910E+04  0.2826218263E+03         1
      14       1  0.1400000000E+00         3    1      1003        63  0.5000575299E+00  0.4999763103E+00  0.4999880617E+00  0.8750201355E+03  0.8749983417E+04  0.2825547309E+03         1
      14       1  0.1400000000E+00         4    1      1004        93  0.5000575902E+00  0.4999676057E+00  0.4999876243E+00  0.8750201566E+03  0.8049977324E+04  0.2824558721E+03         1
      14       1  0.1400000000E+00         5    1      1005       513  0.5000000011E+00  0.4999999994E+00  0.4998506401E+00  0.8750000004E+03  0.8750000000E+04  0.2099970128E+03         2
      14       1  0.1400000000E+00         6    1      1006       543  0.5000000011E+00  0.4999999991E+00  0.4998454115E+00  0.8750000004E+03  0.8049999999E+04  0.2099969082E+03         2
      14       1  0.1400000000E+00         7    1      1007       573  0.5000000012E+00  0.4999999988E+00  0.4998378725E+00  0.8750000004E+03  0.7349999999E+04  0.2099967575E+03         2
      14       1  0.1400000000E+00         8    1      1008       603  0.5000000013E+00  0.4999999986E+00  0.4998276178E+00  0.8750000004E+03  0.6649999999E+04  0.2099965524E+03         2
      15       1  0.1500000000E+00         1    1      1001         3  0.5000617521E+00  0.4999948185E+00  0.4999876442E+00  0.8750216132E+03  0.1014999637E+05  0.2826556000E+03         1
      15       1  0.1500000000E+00         2    1      1002        33  0.5000616959E+00  0.4999845565E+00  0.4999875029E+00  0.8750215936E+03  0.9449989190E+04  0.2826217220E+03         1
      15       1  0.1500000000E+00         3    1      1003        63  0.5000616392E+00  0.4999746182E+00  0.4999872090E+00  0.8750215737E+03  0.8749982233E+04  0.2825546242E+03         1
      15       1  0.1500000000E+00         4    1      1004        93  0.5000617039E+00  0.4999652918E+00  0.4999867403E+00  0.8750215964E+03  0.8049975704E+04  0.2824557617E+03         1
      15       1  0.1500000000E+00         5    1      1005       513  0.5000000012E+00  0.4999999993E+00  0.4998399715E+00  0.8750000004E+03  0.8750000000E+04  0.2099967994E+03         2
      15       1  0.1500000000E+00         6    1      1006       543  0.5000000012E+00  0.4999999990E+00  0.4998343694E+00  0.8750000004E+03  0.8049999999E+04  0.2099966874E+03         2
      15       1  0.1500000000E+00         7    1      1007       573  0.5000000012E+00  0.4999999987E+00  0.4998262920E+00  0.8750000004E+03  0.7349999999E+04  0.2099965258E+03         2
      15       1  0.1500000000E+00         8    1      1008       603  0.5000000014E+00  0.4999999985E+00  0.4998153048E+00  0.8750000005E+03  0.6649999999E+04  0.2099963061E+03         2
      16       1  0.1600000000E+00         1    1      1001         3  0.5000658690E+00  0.4999944731E+00  0.4999868205E+00  0.8750230542E+03  0.1014999613E+05  0.2826554967E+03         1
      16       1  0.1600000000E+00         2    1      1002        33  0.5000658090E+00  0.4999835269E+00  0.4999866698E+00  0.8750230331E+03  0.9449988469E+04  0.2826216176E+03         1
      16       1  0.1600000000E+00         3    1      1003        63  0.5000657486E+00  0.4999729261E+00  0.4999863563E+00  0.8750230120E+03  0.8749981048E+04  0.2825545175E+03         1
      16       1  0.1600000000E+00         4    1      1004        93  0.5000658175E+00  0.4999629779E+00  0.4999858563E+00  0.8750230361E+03  0.8049974085E+04  0.2824556513E+03         1
      16       1  0.1600000000E+00         5    1      1005       513  0.5000000012E+00  0.4999999993E+00  0.4998293030E+00  0.8750000004E+03  0.8749999999E+04  0.2099965861E+03         2
      16       1  0.1600000000E+00         6    1      1006       543  0.5000000013E+00  0.4999999990E+00  0.4998233274E+00  0.8750000004E+03  0.8049999999E+04  0.2099964665E+03         2
      16       1  0.1600000000E+00         7    1      1007       573  0.5000000013E+00  0.4999999987E+00  0.4998147115E+00  0.8750000005E+03  0.7349999999E+04  0.2099962942E+03         2
      16       1  0.1600000000E+00         8    1      1008       603  0.5000000014E+00  0.4999999984E+00  0.4998029918E+00  0.8750000005E+03  0.6649999999E+04  0.2099960598E+03         2
      17       1  0.1700000000E+00         1    1      1001         3  0.5000699859E+00  0.4999941277E+00  0.4999859968E+00  0.8750244951E+03  0.1014999589E+05  0.2826553935E+03         1
      17       1  0.1700000000E+00         2    1      1002        33  0.5000699221E+00  0.4999824974E+00  0.4999858366E+00  0.8750244727E+03  0.9449987748E+04  0.2826215133E+03         1
      17       1  0.1700000000E+00         3    1      1003        63  0.5000698579E+00  0.4999712339E+00  0.4999855035E+00  0.8750244503E+03  0.8749979864E+04  0.2825544108E+03         1
      17       1  0.1700000000E+00         4    1      1004        93  0.5000699312E+00  0.4999606641E+00  0.4999849723E+00  0.8750244759E+03  0.8049972465E+04  0.2824555409E+03         1
      17       1  0.1700000000E+00         5    1      1005       513  0.5000000013E+00  0.4999999992E+00  0.4998186344E+00  0.8750000005E+03  0.8749999999E+04  0.2099963727E+03         2
      17       1  0.1700000000E+00         6    1      1006       543  0.5000000013E+00  0.4999999989E+00  0.4998122853E+00  0.8750000005E+03  0.8049999999E+04  0.2099962457E+03         2
      17       1  0.1700000000E+00         7    1      1007       573  0.5000000014E+00  0.4999999986E+00  0.4998031309E+00  0.8750000005E+03  0.7349999999E+04  0.2099960626E+03         2
      17       1  0.1700000000E+00         8    1      1008       603  0.5000000015E+00  0.4999999983E+00  0.4997906788E+00  0.8750000005E+03  0.6649999999E+04  0.2099958136E+03         2
      18       1  0.1800000000E+00         1    1      1001         3  0.5000741028E+00  0.4999937823E+00  0.4999851730E+00  0.8750259360E+03  0.1014999565E+05  0.2826552903E+03         1
      18       1  0.1800000000E+00         2    1      1002        33  0.5000740352E+00  0.4999814678E+00  0.4999850034E+00  0.8750259123E+03  0.9449987027E+04  0.2826214089E+03         1
      18       1  0.1800000000E+00         3    1      1003        63  0.5000739673E+00  0.4999695418E+00  0.4999846508E+00  0.8750258885E+03  0.8749978679E+04  0.2825543041E+03         1
      18       1  0.1800000000E+00         4    1      1004        93  0.5000740448E+00  0.4999583502E+00  0.4999840883E+00  0.8750259157E+03  0.8049970845E+04  0.2824554304E+03         1
      18       1  0.1800000000E+00         5    1      1005       513  0.5000000014E+00  0.4999999992E+00  0.4998079658E+00  0.8750000005E+03  0.8749999999E+04  0.2099961593E+03         2
      18       1  0.1800000000E+00         6    1      1006       543  0.5000000014E+00  0.4999999988E+00  0.4998012433E+00  0.8750000005E+03  0.8049999999E+04  0.2099960249E+03         2
      18       1  0.1800000000E+00         7    1      1007       573  0.5000000015E+00  0.4999999985E+00  0.4997915504E+00  0.8750000005E+03  0.7349999999E+04  0.2099958310E+03         2
      18       1  0.1800000000E+00         8    1      1008       603  0.5000000016E+00  0.4999999982E+00  0.4997783658E+00  0.8750000006E+03  0.6649999999E+04  0.2099955673E+03         2
      19       1  0.1900000000E+00         1    1      1001         3  0.5000782196E+00  0.4999934368E+00  0.4999843493E+00  0.8750273769E+03  0.1014999541E+05  0.2826551871E+03         1
      19       1  0.1900000000E+00         2    1      1002        33  0.5000781483E+00  0.4999804382E+00  0.4999841703E+00  0.8750273519E+03  0.9449986307E+04  0.2826213046E+03         1
      19       1  0.1900000000E+00         3    1      1003        63  0.5000780766E+00  0.4999678497E+00  0.4999837980E+00  0.8750273268E+03  0.8749977495E+04  0.2825541974E+03         1
      19       1  0.1900000000E+00         4    1      1004        93  0.5000781585E+00  0.4999560363E+00  0.4999832043E+00  0.8750273555E+03  0.8049969225E+04  0.2824553200E+03         1
      19       1  0.1900000000E+00         5    1      1005       513  0.5000000015E+00  0.4999999991E+00  0.4997972973E+00  0.8750000005E+03  0.8749999999E+04  0.2099959459E+03         2
      19       1  0.1900000000E+00         6    1      1006       543  0.5000000015E+00  0.4999999988E+00  0.4997902013E+00  0.8750000005E+03  0.8049999999E+04  0.2099958040E+03         2