# File generated by Flopy version 3.9.1 on 06/21/2025 at 07:15:21.
BEGIN options
  BUDGET  FILEOUT  ex-gwf-csub-p02.cbc
  HEAD  FILEOUT  ex-gwf-csub-p02.hds
END options

BEGIN period  1
  SAVE  HEAD  ALL
  SAVE  BUDGET  ALL
END period  1

