# File generated by Flopy version 3.8.2 on 01/28/2025 at 15:34:38.
BEGIN options
  auxiliary  MULTIPLIER
  AUXMULTNAME  multiplier
  BOUNDNAMES
  PRINT_INPUT
  PRINT_FLOWS
  SAVE_FLOWS
  OBS6  FILEIN  sgn.rch.obs
END options

BEGIN dimensions
  MAXBOUND  32417
END dimensions

BEGIN period  1
    OPEN/CLOSE  'sgn.rch_stress_period_data_1.txt'
END period  1

