# File generated by Flopy version 3.8.2 on 01/28/2025 at 15:34:38.
BEGIN options
  DIGITS  9
END options

BEGIN continuous  FILEOUT  drn_surf.csv
  surf-drn  DRN  surf-drn
END continuous  FILEOUT  drn_surf.csv

