# File generated by Flopy version 3.8.2 on 01/28/2025 at 15:34:38.
BEGIN options
  DIGITS  9
END options

BEGIN continuous  FILEOUT  rch.csv
  rch  RCH  rch
END continuous  FILEOUT  rch.csv

