# File generated by Flopy version 3.9.1 on 04/09/2025 at 10:49:57.
BEGIN options
END options

BEGIN griddata
  strt
    CONSTANT       0.00000000
END griddata

