# File generated by Flopy version 3.9.1 on 06/21/2025 at 10:21:24.
BEGIN options
  STORAGECOEFFICIENT
END options

BEGIN griddata
  iconvert
    CONSTANT  0
  ss
    CONSTANT  1.00000000E-06
END griddata

BEGIN period  1
  TRANSIENT
END period  1

