# File generated by Flopy version 3.9.1 on 06/21/2025 at 10:21:24.
BEGIN options
END options

BEGIN timing
  TDIS6  ex-gwf-fhb.tdis
END timing

BEGIN models
  gwf6  ex-gwf-fhb.nam  ex-gwf-fhb
END models

BEGIN exchanges
END exchanges

BEGIN solutiongroup  1
  ims6  ex-gwf-fhb.ims  ex-gwf-fhb
END solutiongroup  1

