# GHB package for MODFLOW-NWT generated by Flopy 3.9.1
         2        55
         2         0 # stress period 1
         1         1         1           -10.0            15.0
         1         1       100           -15.0            15.0
