# File generated by Flopy version 3.9.1 on 05/14/2025 at 06:54:36.
BEGIN options
END options

BEGIN griddata
  porosity
    CONSTANT       0.10000000
  izone  LAYERED
    INTERNAL  FACTOR  1
      0  0  0  0  0  0  0  0  0  0  0  0  0  0  0  0  0  0  0  2
      0  0  0  0  0  0  0  0  0  0  0  0  0  0  0  0  0  0  0  2
      0  0  0  0  0  0  0  0  0  0  0  0  0  0  0  0  0  0  0  2
      0  0  0  0  0  0  0  0  0  0  0  0  0  0  0  0  0  0  0  2
      0  0  0  0  0  0  0  0  0  0  0  0  0  0  0  0  0  0  0  2
      0  0  0  0  0  0  0  0  0  0  0  0  0  0  0  0  0  0  0  2
      0  0  0  0  0  0  0  0  0  0  0  0  0  0  0  0  0  0  0  2
      0  0  0  0  0  0  0  0  0  0  0  0  0  0  0  0  0  0  0  2
      0  0  0  0  0  0  0  0  0  0  0  0  0  0  0  0  0  0  0  2
      0  0  0  0  0  0  0  0  0  0  0  0  0  0  0  0  0  0  0  2
      0  0  0  0  0  0  0  0  0  0  0  0  0  0  0  0  0  0  0  2
      0  0  0  0  0  0  0  0  0  0  0  0  0  0  0  0  0  0  0  2
      0  0  0  0  0  0  0  0  0  0  0  0  0  0  0  0  0  0  0  2
      0  0  0  0  0  0  0  0  0  0  0  0  0  0  0  0  0  0  0  2
      0  0  0  0  0  0  0  0  0  0  0  0  0  0  0  0  0  0  0  2
      0  0  0  0  0  0  0  0  0  0  0  0  0  0  0  0  0  0  0  2
      0  0  0  0  0  0  0  0  0  0  0  0  0  0  0  0  0  0  0  2
      0  0  0  0  0  0  0  0  0  0  0  0  0  0  0  0  0  0  0  2
      0  0  0  0  0  0  0  0  0  0  0  0  0  0  0  0  0  0  0  2
      0  0  0  0  0  0  0  0  0  0  0  0  0  0  0  0  0  0  0  2
      0  0  0  0  0  0  0  0  0  0  0  0  0  0  0  0  0  0  0  2
    INTERNAL  FACTOR  1
      0  0  0  0  0  0  0  0  0  0  0  0  0  0  0  0  0  0  0  0
      0  0  0  0  0  0  0  0  0  0  0  0  0  0  0  0  0  0  0  0
      0  0  0  0  0  0  0  0  0  0  0  0  0  0  0  0  0  0  0  0
      0  0  0  0  0  0  0  0  0  0  0  0  0  0  0  0  0  0  0  0
      0  0  0  0  0  0  0  0  0  0  0  0  0  0  0  0  0  0  0  0
      0  0  0  0  0  0  0  0  0  0  0  0  0  0  0  0  0  0  0  0
      0  0  0  0  0  0  0  0  0  0  0  0  0  0  0  0  0  0  0  0
      0  0  0  0  0  0  0  0  0  0  0  0  0  0  0  0  0  0  0  0
      0  0  0  0  0  0  0  0  0  0  0  0  0  0  0  0  0  0  0  0
      0  0  0  0  0  0  0  0  0  0  0  0  0  0  0  0  0  0  0  0
      0  0  0  0  0  0  0  0  0  0  0  0  0  0  0  0  0  0  0  0
      0  0  0  0  0  0  0  0  0  0  0  0  0  0  0  0  0  0  0  0
      0  0  0  0  0  0  0  0  0  0  0  0  0  0  0  0  0  0  0  0
      0  0  0  0  0  0  0  0  0  0  0  0  0  0  0  0  0  0  0  0
      0  0  0  0  0  0  0  0  0  0  0  0  0  0  0  0  0  0  0  0
      0  0  0  0  0  0  0  0  0  0  0  0  0  0  0  0  0  0  0  0
      0  0  0  0  0  0  0  0  0  0  0  0  0  0  0  0  0  0  0  0
      0  0  0  0  0  0  0  0  0  0  0  0  0  0  0  0  0  0  0  0
      0  0  0  0  0  0  0  0  0  0  0  0  0  0  0  0  0  0  0  0
      0  0  0  0  0  0  0  0  0  0  0  0  0  0  0  0  0  0  0  0
      0  0  0  0  0  0  0  0  0  0  0  0  0  0  0  0  0  0  0  0
    INTERNAL  FACTOR  1
      0  0  0  0  0  0  0  0  0  0  0  0  0  0  0  0  0  0  0  0
      0  0  0  0  0  0  0  0  0  0  0  0  0  0  0  0  0  0  0  0
      0  0  0  0  0  0  0  0  0  0  0  0  0  0  0  0  0  0  0  0
      0  0  0  0  0  0  0  0  0  0  0  0  0  0  0  0  0  0  0  0
      0  0  0  0  0  0  0  0  0  0  0  0  0  0  0  0  0  0  0  0
      0  0  0  0  0  0  0  0  0  0  0  0  0  0  0  0  0  0  0  0
      0  0  0  0  0  0  0  0  0  0  0  0  0  0  0  0  0  0  0  0
      0  0  0  0  0  0  0  0  0  0  0  0  0  0  0  0  0  0  0  0
      0  0  0  0  0  0  0  0  0  0  0  0  0  0  0  0  0  0  0  0
      0  0  0  0  0  0  0  0  0  0  0  0  0  0  0  0  0  0  0  0
      0  0  0  0  0  0  0  0  0  1  0  0  0  0  0  0  0  0  0  0
      0  0  0  0  0  0  0  0  0  0  0  0  0  0  0  0  0  0  0  0
      0  0  0  0  0  0  0  0  0  0  0  0  0  0  0  0  0  0  0  0
      0  0  0  0  0  0  0  0  0  0  0  0  0  0  0  0  0  0  0  0
      0  0  0  0  0  0  0  0  0  0  0  0  0  0  0  0  0  0  0  0
      0  0  0  0  0  0  0  0  0  0  0  0  0  0  0  0  0  0  0  0
      0  0  0  0  0  0  0  0  0  0  0  0  0  0  0  0  0  0  0  0
      0  0  0  0  0  0  0  0  0  0  0  0  0  0  0  0  0  0  0  0
      0  0  0  0  0  0  0  0  0  0  0  0  0  0  0  0  0  0  0  0
      0  0  0  0  0  0  0  0  0  0  0  0  0  0  0  0  0  0  0  0
      0  0  0  0  0  0  0  0  0  0  0  0  0  0  0  0  0  0  0  0
END griddata

