# File generated by Flopy version 3.9.1 on 02/17/2025 at 14:57:39.
BEGIN options
END options

BEGIN dimensions
  NLAY  1
  NROW  1
  NCOL  101
END dimensions

BEGIN griddata
  delr
    CONSTANT       0.16000000
  delc
    CONSTANT       0.16000000
  top
    CONSTANT       1.00000000
  botm
    CONSTANT       0.00000000
END griddata

