# File generated by Flopy version 3.9.1 on 06/10/2025 at 20:06:08.
BEGIN options
  NEWTON  UNDER_RELAXATION
END options

BEGIN packages
  DIS6  ex-gwf-capture.dis  dis
  NPF6  ex-gwf-capture.npf  npf
  IC6  ex-gwf-capture.ic  ic
  RIV6  ex-gwf-capture.riv  riv-1
  WEL6  ex-gwf-capture.wel  wel-1
  RCH6  ex-gwf-capture.rcha  rcha_0
  CHD6  ex-gwf-capture.chd  chd_0
  WEL6  ex-gwf-capture.cf.wel  cf-1
  OC6  ex-gwf-capture.oc  oc
END packages

