# File generated by Flopy version 3.9.1 on 06/10/2025 at 20:06:08.
BEGIN options
END options

BEGIN period  1
  PRINT  BUDGET  ALL
END period  1

