# File generated by Flopy version 3.9.1 on 06/10/2025 at 20:06:08.
BEGIN options
END options

BEGIN timing
  TDIS6  ex-gwf-capture.tdis
END timing

BEGIN models
  gwf6  ex-gwf-capture.nam  ex-gwf-capture
END models

BEGIN exchanges
END exchanges

BEGIN solutiongroup  1
  ims6  ex-gwf-capture.ims  ex-gwf-capture
END solutiongroup  1

