# File generated by Flopy version 3.9.1 on 05/18/2025 at 07:59:32.
BEGIN options
END options

BEGIN griddata
  strt
    CONSTANT     400.00000000
END griddata

