# File generated by Flopy version 3.9.1 on 04/10/2025 at 15:52:33.
BEGIN options
  HEAD  FILEOUT  zaidel.hds
END options

BEGIN period  1
  SAVE  HEAD  ALL
END period  1

