# File generated by Flopy version 3.9.1 on 04/10/2025 at 15:52:32.
BEGIN options
END options

BEGIN griddata
  strt
    CONSTANT      23.00000000
END griddata

