# File generated by Flopy version 3.9.1 on 04/10/2025 at 15:52:32.
BEGIN options
  NEWTON
END options

BEGIN packages
  DIS6  zaidel.dis  dis
  NPF6  zaidel.npf  npf
  IC6  zaidel.ic  ic
  CHD6  zaidel.chd  chd_0
  OC6  zaidel.oc  oc
END packages

