# File generated by Flopy version 3.8.2 on 01/08/2025 at 16:23:58.
BEGIN options
END options

BEGIN griddata
  strt  LAYERED
    OPEN/CLOSE  '../data/top.dat'  FACTOR  1.0
    OPEN/CLOSE  '../data/top.dat'  FACTOR  1.0
    OPEN/CLOSE  '../data/top.dat'  FACTOR  1.0
END griddata

