# File generated by Flopy version 3.9.1 on 02/24/2025 at 17:17:50.
BEGIN options
END options

BEGIN griddata
  strt
    CONSTANT       0.00000000
END griddata

