# File generated by Flopy version 3.9.1 on 02/24/2025 at 17:17:50.
BEGIN options
END options

BEGIN griddata
  porosity
    CONSTANT       0.14000000
END griddata

