# File generated by Flopy version 3.9.1 on 02/17/2025 at 14:56:57.
BEGIN options
  TIME_UNITS  seconds
END options

BEGIN dimensions
  NPER  2
END dimensions

BEGIN perioddata
     160.00000000  160       1.00000000
    1340.00000000  1340       1.00000000
END perioddata

