# LPF package for MODFLOW-2005 generated by Flopy 3.9.1
         0    -1E+30         0  
         0
         0
   1.000000E+00
         0
         0
INTERNAL               1 (120E15.6) -1 #hk layer 1                    
   5.295981E-01   4.532317E-01   3.797767E-01   3.428649E-01   3.296911E-01   3.145127E-01   2.877405E-01   2.618473E-01   2.529886E-01   2.683689E-01   3.028989E-01   3.357033E-01   3.432591E-01   3.309939E-01   3.291064E-01   3.547634E-01   3.889115E-01   3.889849E-01   3.525188E-01   3.286455E-01   3.544577E-01   4.251091E-01   4.841590E-01   4.757613E-01   4.303994E-01   4.092602E-01   4.286385E-01   4.617228E-01   4.716910E-01   4.562573E-01   4.448607E-01   4.583448E-01   4.899331E-01   5.094389E-01   4.930634E-01   4.601505E-01   4.597819E-01   5.308447E-01   6.702447E-01   7.858589E-01   7.649160E-01   6.597822E-01   5.982591E-01   6.165964E-01   6.569805E-01   6.373041E-01   5.719449E-01   5.438061E-01   5.844444E-01   6.371527E-01   6.006209E-01   4.789516E-01   3.716751E-01   3.249865E-01   3.239361E-01   3.317349E-01   3.181488E-01   2.870605E-01   2.626930E-01   2.571113E-01   2.600959E-01   2.470993E-01   2.090466E-01   1.694587E-01   1.536394E-01   1.688206E-01   2.048525E-01   2.303324E-01   2.241860E-01   2.084352E-01   2.082914E-01   2.184833E-01   2.119208E-01   1.819849E-01   1.564288E-01   1.571735E-01   1.857542E-01   2.226032E-01   2.352217E-01   2.192186E-01   2.006117E-01   1.968747E-01   2.062362E-01   2.159835E-01   2.161606E-01   2.126950E-01   2.235050E-01   2.647500E-01   3.363394E-01   4.032186E-01   4.213064E-01   4.075631E-01   4.159685E-01   4.649208E-01   5.114350E-01   4.958442E-01   4.415379E-01   4.211140E-01   4.633732E-01   5.312390E-01   5.434137E-01   4.843923E-01   4.269452E-01   4.204893E-01   4.577792E-01   4.934843E-01   4.855371E-01   4.437940E-01   4.073108E-01   3.965665E-01   4.046204E-01   4.095773E-01   3.997016E-01   3.929952E-01   4.207388E-01   4.938424E-01   5.679079E-01   5.586893E-01   4.676816E-01   3.855850E-01
   4.936539E-01   5.331922E-01   5.583017E-01   5.185462E-01   4.404189E-01   3.878573E-01   3.863126E-01   4.144981E-01   4.254653E-01   4.039566E-01   3.890068E-01   4.115363E-01   4.486062E-01   4.394276E-01   3.813433E-01   3.439515E-01   3.741607E-01   4.655941E-01   5.427099E-01   5.294305E-01   4.731538E-01   4.534222E-01   4.788916E-01   4.976928E-01   4.644713E-01   4.073222E-01   3.783472E-01   3.932514E-01   4.319869E-01   4.574915E-01   4.534717E-01   4.419074E-01   4.497528E-01   4.755841E-01   4.846971E-01   4.483939E-01   3.947637E-01   3.793653E-01   4.354296E-01   5.576941E-01   6.746331E-01   7.043414E-01   6.797947E-01   6.818137E-01   7.183846E-01   7.252957E-01   6.667020E-01   5.970953E-01   5.729982E-01   5.867500E-01   5.848330E-01   5.357950E-01   4.694977E-01   4.224359E-01   3.960874E-01   3.715246E-01   3.362690E-01   2.937974E-01   2.541428E-01   2.263487E-01   2.169444E-01   2.265392E-01   2.431576E-01   2.433471E-01   2.178558E-01   1.860209E-01   1.679340E-01   1.666893E-01   1.753747E-01   1.886960E-01   2.095780E-01   2.417519E-01   2.738896E-01   2.786609E-01   2.459574E-01   2.006022E-01   1.693178E-01   1.602819E-01   1.698330E-01   1.865990E-01   1.937844E-01   1.846981E-01   1.728424E-01   1.751994E-01   1.953615E-01   2.190919E-01   2.284077E-01   2.315742E-01   2.560618E-01   3.140346E-01   3.742255E-01   3.828146E-01   3.551472E-01   3.585376E-01   4.299860E-01   5.458946E-01   6.167459E-01   6.059626E-01   5.937212E-01   6.463990E-01   7.355953E-01   7.481424E-01   6.362947E-01   5.017926E-01   4.362105E-01   4.545974E-01   5.326608E-01   6.157412E-01   6.564195E-01   6.738788E-01   7.155581E-01   7.716281E-01   7.569211E-01   6.361137E-01   5.113369E-01   4.807544E-01   5.680860E-01   7.213131E-01   7.881941E-01   7.082878E-01
   6.035017E-01   5.996038E-01   6.464761E-01   7.114611E-01   7.150323E-01   6.214438E-01   5.043191E-01   4.416741E-01   4.486614E-01   5.000879E-01   5.540580E-01   5.872234E-01   6.090634E-01   6.251532E-01   6.161183E-01   5.683355E-01   5.036268E-01   4.571811E-01   4.481529E-01   4.772784E-01   5.286239E-01   5.695974E-01   5.756800E-01   5.655976E-01   5.823759E-01   6.377079E-01   6.760492E-01   6.240389E-01   5.164320E-01   4.530060E-01   4.800011E-01   5.832130E-01   6.898801E-01   7.346601E-01   7.576563E-01   8.228641E-01   8.991114E-01   8.798674E-01   7.627094E-01   6.754292E-01   7.058080E-01   8.548618E-01   1.023672E+00   1.063556E+00   9.756263E-01   8.915279E-01   8.856691E-01   9.311177E-01   9.375136E-01   8.489630E-01   7.201921E-01   6.314310E-01   5.965858E-01   5.691298E-01   5.033011E-01   4.212226E-01   3.766673E-01   3.849908E-01   4.086441E-01   3.837089E-01   3.110405E-01   2.535067E-01   2.399644E-01   2.530781E-01   2.514753E-01   2.175681E-01   1.812097E-01   1.677178E-01   1.755927E-01   1.886246E-01   1.942072E-01   1.981661E-01   2.122084E-01   2.344151E-01   2.471412E-01   2.379978E-01   2.181357E-01   2.071800E-01   2.149044E-01   2.385625E-01   2.633605E-01   2.712212E-01   2.620501E-01   2.560951E-01   2.716202E-01   3.096929E-01   3.525121E-01   3.819242E-01   4.044033E-01   4.370638E-01   4.754860E-01   4.954852E-01   4.944310E-01   5.036106E-01   5.448442E-01   5.956668E-01   6.064930E-01   5.703107E-01   5.337922E-01   5.324437E-01   5.661395E-01   6.189687E-01   6.784348E-01   7.246110E-01   7.132219E-01   6.229200E-01   5.086199E-01   4.398333E-01   4.388685E-01   4.924863E-01   5.708945E-01   6.492875E-01   7.181808E-01   7.535250E-01   7.122267E-01   6.012084E-01   4.912435E-01   4.344544E-01   4.337221E-01   4.630847E-01
   5.569313E-01   4.743823E-01   4.313431E-01   4.737204E-01   5.974877E-01   7.231929E-01   7.489024E-01   7.030852E-01   6.803204E-01   6.997892E-01   7.031738E-01   6.478170E-01   5.802246E-01   5.706888E-01   6.483646E-01   7.913073E-01   9.157860E-01   9.349509E-01   8.629405E-01   7.829219E-01   7.434007E-01   7.294470E-01   6.978549E-01   6.454400E-01   6.307310E-01   7.186151E-01   9.217857E-01   1.112840E+00   1.088593E+00   9.047950E-01   7.766822E-01   7.808115E-01   8.609673E-01   9.008589E-01   8.604159E-01   8.199890E-01   8.371359E-01   8.707297E-01   8.342798E-01   7.275633E-01   6.421258E-01   6.446629E-01   7.449825E-01   8.920450E-01   9.677314E-01   8.992085E-01   7.647607E-01   6.787129E-01   6.771291E-01   7.204683E-01   7.306974E-01   6.841879E-01   6.466123E-01   6.733446E-01   7.372381E-01   7.373610E-01   6.353394E-01   5.245478E-01   4.803011E-01   4.927596E-01   4.976480E-01   4.456387E-01   3.684419E-01   3.179469E-01   3.028465E-01   2.982934E-01   2.741506E-01   2.286048E-01   1.868827E-01   1.688302E-01   1.797916E-01   2.153044E-01   2.566856E-01   2.797513E-01   2.867891E-01   3.023532E-01   3.341671E-01   3.544177E-01   3.356328E-01   3.057655E-01   3.162698E-01   3.940618E-01   5.152111E-01   5.851720E-01   5.598283E-01   5.199357E-01   5.330542E-01   5.845139E-01   6.023446E-01   5.507782E-01   4.833857E-01   4.579830E-01   4.840657E-01   5.324075E-01   5.570789E-01   5.408205E-01   5.128645E-01   5.066886E-01   5.211422E-01   5.175396E-01   4.660255E-01   3.985702E-01   3.696000E-01   3.994959E-01   4.606571E-01   4.818429E-01   4.354515E-01   3.830613E-01   3.754702E-01   4.043061E-01   4.189655E-01   3.875459E-01   3.423287E-01   3.217295E-01   3.260427E-01   3.309025E-01   3.216429E-01   3.122785E-01   3.229219E-01   3.564548E-01
   8.573455E-01   8.740495E-01   7.469224E-01   6.263398E-01   6.133280E-01   6.956046E-01   7.806467E-01   7.844238E-01   7.536708E-01   7.804915E-01   8.793256E-01   9.670172E-01   9.509531E-01   8.648395E-01   8.107579E-01   8.350140E-01   9.089262E-01   9.553986E-01   9.275483E-01   8.747495E-01   8.823330E-01   9.850831E-01   1.120878E+00   1.148648E+00   1.033272E+00   9.112252E-01   8.900499E-01   9.536177E-01   9.923114E-01   9.303634E-01   8.357426E-01   7.979870E-01   8.120016E-01   7.996736E-01   7.191426E-01   6.277502E-01   5.896632E-01   6.097271E-01   6.462361E-01   6.502750E-01   6.131956E-01   5.645538E-01   5.364902E-01   5.508201E-01   6.189030E-01   7.292956E-01   8.348283E-01   8.911022E-01   9.146603E-01   9.449666E-01   9.663600E-01   9.229390E-01   8.265411E-01   7.703720E-01   8.283600E-01   1.005216E+00   1.203007E+00   1.268471E+00   1.183618E+00   1.058194E+00   9.530177E-01   8.489963E-01   7.216997E-01   5.918756E-01   5.011173E-01   4.709862E-01   4.934110E-01   5.237831E-01   4.943357E-01   3.990292E-01   3.089377E-01   2.709431E-01   2.813074E-01   3.076035E-01   3.140175E-01   3.090863E-01   3.330719E-01   4.001349E-01   4.568268E-01   4.238520E-01   3.374727E-01   2.886766E-01   3.066273E-01   3.697361E-01   4.125248E-01   3.905734E-01   3.471961E-01   3.342033E-01   3.550844E-01   3.749892E-01   3.591299E-01   3.213829E-01   3.029884E-01   3.255065E-01   3.762540E-01   4.042528E-01   3.725313E-01   3.209829E-01   3.065692E-01   3.446267E-01   4.006948E-01   4.067917E-01   3.600908E-01   3.296416E-01   3.545015E-01   4.134420E-01   4.328831E-01   3.819518E-01   3.249437E-01   3.131613E-01   3.420935E-01   3.693257E-01   3.574824E-01   3.239180E-01   3.060426E-01   3.141975E-01   3.309749E-01   3.307254E-01   3.094501E-01   2.906404E-01
   7.929310E-01   7.727737E-01   7.530832E-01   7.184160E-01   6.594861E-01   5.879690E-01   5.350989E-01   5.304847E-01   5.794275E-01   6.427048E-01   6.505560E-01   5.949192E-01   5.487021E-01   5.659975E-01   6.348385E-01   6.900781E-01   6.951503E-01   7.015910E-01   7.636046E-01   8.480173E-01   8.520038E-01   7.646065E-01   7.018605E-01   7.479653E-01   8.930469E-01   1.025862E+00   1.035233E+00   9.713598E-01   9.471808E-01   9.877020E-01   1.023739E+00   9.759120E-01   8.607444E-01   7.609314E-01   7.254643E-01   7.463577E-01   7.803925E-01   7.940043E-01   8.104246E-01   8.847615E-01   1.024453E+00   1.120544E+00   1.038347E+00   8.521800E-01   7.424007E-01   7.799106E-01   9.244094E-01   1.042100E+00   1.044147E+00   1.020434E+00   1.072013E+00   1.157428E+00   1.135782E+00   9.902447E-01   8.642919E-01   8.445832E-01   8.957458E-01   9.134260E-01   8.496963E-01   7.756489E-01   7.665426E-01   8.240592E-01   8.789922E-01   8.448260E-01   7.167837E-01   5.703850E-01   4.647941E-01   4.080374E-01   3.806976E-01   3.610394E-01   3.428915E-01   3.354671E-01   3.430239E-01   3.497846E-01   3.340843E-01   3.034217E-01   2.895537E-01   3.120138E-01   3.605794E-01   3.943637E-01   3.831689E-01   3.474075E-01   3.185297E-01   3.026837E-01   2.929631E-01   2.891071E-01   2.965430E-01   3.124271E-01   3.228790E-01   3.196544E-01   3.104348E-01   3.026589E-01   2.911442E-01   2.711297E-01   2.529162E-01   2.502858E-01   2.618454E-01   2.689775E-01   2.581817E-01   2.421852E-01   2.406043E-01   2.545342E-01   2.651148E-01   2.571751E-01   2.433680E-01   2.476336E-01   2.801094E-01   3.270513E-01   3.516455E-01   3.296511E-01   2.819283E-01   2.437899E-01   2.299600E-01   2.351979E-01   2.457241E-01   2.551247E-01   2.744648E-01   3.163840E-01   3.622193E-01   3.549072E-01
   5.686470E-01   6.004257E-01   6.583490E-01   7.099535E-01   6.923333E-01   5.841473E-01   4.509871E-01   3.697114E-01   3.700409E-01   4.535193E-01   5.850796E-01   6.716341E-01   6.653706E-01   6.297826E-01   6.197448E-01   6.165221E-01   5.825855E-01   5.400938E-01   5.502106E-01   6.466066E-01   7.964385E-01   8.916765E-01   8.743657E-01   8.216889E-01   8.191747E-01   8.763980E-01   9.429486E-01   9.610555E-01   9.264493E-01   8.876909E-01   8.940992E-01   9.552557E-01   1.017596E+00   9.907495E-01   8.652223E-01   7.394142E-01   6.898876E-01   7.124963E-01   7.491509E-01   7.558297E-01   7.657921E-01   8.383758E-01   9.635506E-01   1.025062E+00   9.362975E-01   7.925692E-01   7.222320E-01   7.547688E-01   8.386101E-01   8.809446E-01   8.401881E-01   7.692101E-01   7.340963E-01   7.559078E-01   8.095980E-01   8.388348E-01   8.070695E-01   7.445492E-01   7.041166E-01   6.919152E-01   6.621783E-01   5.863243E-01   5.103322E-01   4.949976E-01   5.506687E-01   6.141241E-01   5.869014E-01   4.848590E-01   4.095412E-01   4.017482E-01   4.332154E-01   4.415798E-01   4.022310E-01   3.592928E-01   3.532349E-01   3.858964E-01   4.329764E-01   4.708520E-01   5.042515E-01   5.530990E-01   6.141737E-01   6.418201E-01   5.873852E-01   4.743156E-01   3.765168E-01   3.361613E-01   3.514597E-01   3.893858E-01   3.971445E-01   3.614165E-01   3.250856E-01   3.187744E-01   3.297521E-01   3.211867E-01   2.838216E-01   2.485040E-01   2.358826E-01   2.360798E-01   2.266563E-01   2.054963E-01   1.938625E-01   2.073428E-01   2.419043E-01   2.724097E-01   2.743496E-01   2.544009E-01   2.353446E-01   2.295219E-01   2.376549E-01   2.543247E-01   2.690460E-01   2.704660E-01   2.571294E-01   2.386663E-01   2.230517E-01   2.104741E-01   2.006269E-01   1.995032E-01   2.146387E-01   2.441547E-01
   6.692771E-01   6.142575E-01   5.861091E-01   6.142156E-01   6.906857E-01   7.558697E-01   7.326554E-01   6.302225E-01   5.359293E-01   5.028316E-01   5.196090E-01   5.359645E-01   5.179062E-01   4.940986E-01   5.094770E-01   5.657414E-01   6.103119E-01   5.947221E-01   5.488392E-01   5.317951E-01   5.613472E-01   6.138279E-01   6.598232E-01   7.016720E-01   7.627265E-01   8.483030E-01   9.309920E-01   9.666839E-01   9.228095E-01   8.075076E-01   6.792253E-01   6.041284E-01   6.096634E-01   6.725360E-01   7.176351E-01   6.837394E-01   6.079292E-01   5.571865E-01   5.413091E-01   5.256478E-01   4.917835E-01   4.690777E-01   4.940557E-01   5.667642E-01   6.327196E-01   6.250875E-01   5.588636E-01   5.081580E-01   5.200394E-01   5.984753E-01   7.012691E-01   7.464758E-01   6.994730E-01   6.226133E-01   5.818778E-01   5.768733E-01   5.571494E-01   4.971442E-01   4.448930E-01   4.586277E-01   5.500296E-01   6.495827E-01   6.412011E-01   5.466536E-01   4.848038E-01   4.977223E-01   5.373549E-01   5.204642E-01   4.498747E-01   4.085602E-01   4.460939E-01   5.558246E-01   6.615641E-01   6.709008E-01   6.076244E-01   5.607311E-01   5.676965E-01   6.033912E-01   6.111414E-01   5.685222E-01   5.194814E-01   5.120531E-01   5.425338E-01   5.460860E-01   4.674769E-01   3.581290E-01   2.950202E-01   2.934879E-01   3.227105E-01   3.252561E-01   2.833064E-01   2.442204E-01   2.435404E-01   2.775009E-01   3.101215E-01   3.064702E-01   2.816188E-01   2.698517E-01   2.795399E-01   2.940916E-01   2.949659E-01   2.861348E-01   2.881614E-01   3.163517E-01   3.679753E-01   4.119191E-01   4.046156E-01   3.484885E-01   2.939412E-01   2.753839E-01   2.894080E-01   3.026894E-01   2.823007E-01   2.425357E-01   2.191481E-01   2.225879E-01   2.357226E-01   2.334894E-01   2.164615E-01   2.075571E-01
   1.137886E+00   1.099602E+00   1.093726E+00   1.014910E+00   8.630710E-01   7.519346E-01   7.429274E-01   7.926891E-01   7.889112E-01   6.860269E-01   5.687127E-01   5.079847E-01   4.969099E-01   4.904540E-01   4.604962E-01   4.244710E-01   4.102983E-01   4.207036E-01   4.330221E-01   4.231549E-01   3.957198E-01   3.792157E-01   3.957179E-01   4.419960E-01   4.825096E-01   4.789021E-01   4.472387E-01   4.385209E-01   4.750508E-01   5.240955E-01   5.236174E-01   4.746023E-01   4.426246E-01   4.623361E-01   5.022830E-01   4.947948E-01   4.355115E-01   3.905467E-01   3.964741E-01   4.315755E-01   4.413751E-01   4.114001E-01   3.889963E-01   4.120392E-01   4.715567E-01   5.142911E-01   4.971833E-01   4.444959E-01   4.021243E-01   3.852222E-01   3.832270E-01   3.804252E-01   3.721322E-01   3.680572E-01   3.805833E-01   4.085498E-01   4.278061E-01   4.101697E-01   3.650325E-01   3.311120E-01   3.310844E-01   3.578233E-01   3.861631E-01   4.049061E-01   4.364753E-01   5.080400E-01   6.110595E-01   6.893324E-01   6.998644E-01   6.702151E-01   6.465047E-01   6.434696E-01   6.608651E-01   7.074317E-01   7.894893E-01   8.812483E-01   9.327414E-01   9.308891E-01   9.090834E-01   8.796570E-01   8.168291E-01   7.225339E-01   6.513121E-01   6.446524E-01   6.822537E-01   6.867126E-01   6.125156E-01   5.177243E-01   4.717034E-01   4.833400E-01   5.131740E-01   5.106770E-01   4.721414E-01   4.365400E-01   4.284318E-01   4.375848E-01   4.336478E-01   4.020510E-01   3.663296E-01   3.611603E-01   3.998778E-01   4.553012E-01   4.620380E-01   4.019719E-01   3.415297E-01   3.334919E-01   3.740055E-01   4.064375E-01   3.774301E-01   3.264541E-01   3.184202E-01   3.648878E-01   4.107487E-01   3.787205E-01   2.988467E-01   2.506487E-01   2.538581E-01   2.811789E-01   2.843911E-01   2.539438E-01
   1.287452E+00   1.157714E+00   1.145134E+00   1.200341E+00   1.216159E+00   1.156000E+00   1.089069E+00   1.070022E+00   1.070184E+00   1.018167E+00   8.901746E-01   7.356086E-01   6.128137E-01   5.483897E-01   5.431671E-01   5.763771E-01   6.003799E-01   5.707517E-01   5.016802E-01   4.409837E-01   4.057937E-01   3.780158E-01   3.421401E-01   3.121966E-01   3.111148E-01   3.405831E-01   3.709542E-01   3.672496E-01   3.410878E-01   3.336072E-01   3.645326E-01   4.176818E-01   4.506966E-01   4.408684E-01   4.121887E-01   3.975055E-01   4.083107E-01   4.357010E-01   4.586134E-01   4.599077E-01   4.441921E-01   4.301727E-01   4.243644E-01   4.124420E-01   3.840632E-01   3.596547E-01   3.722151E-01   4.319355E-01   4.962128E-01   4.872256E-01   4.093659E-01   3.439372E-01   3.304730E-01   3.538673E-01   3.752254E-01   3.774701E-01   3.870678E-01   4.300108E-01   4.912806E-01   5.201242E-01   4.984013E-01   4.696082E-01   4.739385E-01   5.097713E-01   5.429937E-01   5.445089E-01   5.267696E-01   5.276458E-01   5.735868E-01   6.593851E-01   7.358239E-01   7.423941E-01   6.878182E-01   6.394745E-01   6.357737E-01   6.557691E-01   6.545101E-01   6.328053E-01   6.428839E-01   7.185998E-01   8.238792E-01   8.705031E-01   8.448508E-01   8.374653E-01   9.095700E-01   1.012425E+00   1.019396E+00   8.997552E-01   7.613123E-01   6.801147E-01   6.479360E-01   6.288483E-01   6.078416E-01   5.920393E-01   5.802112E-01   5.541257E-01   5.021868E-01   4.354249E-01   3.726217E-01   3.250570E-01   2.971553E-01   2.885995E-01   2.920203E-01   2.945707E-01   2.908432E-01   2.919241E-01   3.126833E-01   3.526064E-01   3.884068E-01   3.950856E-01   3.777196E-01   3.585366E-01   3.468199E-01   3.391822E-01   3.349271E-01   3.379451E-01   3.448143E-01   3.419820E-01   3.224210E-01   2.963763E-01
   8.910917E-01   7.817581E-01   7.151790E-01   6.920666E-01   6.721589E-01   6.269227E-01   5.762829E-01   5.566294E-01   5.817226E-01   6.382117E-01   6.907924E-01   6.923352E-01   6.177316E-01   5.019668E-01   4.103659E-01   3.774063E-01   3.982921E-01   4.404875E-01   4.638056E-01   4.648141E-01   4.705881E-01   4.829676E-01   4.658588E-01   4.043966E-01   3.413725E-01   3.189687E-01   3.420211E-01   3.838813E-01   4.064937E-01   4.064318E-01   4.185951E-01   4.710948E-01   5.563217E-01   6.219810E-01   6.130289E-01   5.448451E-01   4.823401E-01   4.658836E-01   4.902378E-01   5.140597E-01   5.000432E-01   4.686320E-01   4.686035E-01   5.128940E-01   5.552627E-01   5.371835E-01   4.860037E-01   4.784078E-01   5.449946E-01   6.350652E-01   6.417163E-01   5.623739E-01   5.078371E-01   5.459460E-01   6.710132E-01   8.026668E-01   8.460898E-01   8.193595E-01   8.042782E-01   8.319037E-01   8.716049E-01   8.803017E-01   8.593340E-01   8.529219E-01   8.947459E-01   9.615412E-01   9.661696E-01   8.556446E-01   7.111458E-01   6.455495E-01   6.977569E-01   8.226736E-01   8.851681E-01   8.071590E-01   6.931847E-01   6.510835E-01   6.838184E-01   7.259024E-01   7.250252E-01   7.128801E-01   7.476662E-01   8.316599E-01   9.005199E-01   9.000847E-01   8.686879E-01   8.842958E-01   9.833974E-01   1.132734E+00   1.222749E+00   1.147467E+00   9.426001E-01   7.445902E-01   6.326767E-01   5.965953E-01   5.804198E-01   5.369102E-01   4.800011E-01   4.541726E-01   4.706567E-01   4.907826E-01   4.641770E-01   4.023910E-01   3.574347E-01   3.491637E-01   3.571748E-01   3.515417E-01   3.345843E-01   3.385698E-01   3.894544E-01   4.865894E-01   5.860034E-01   6.206191E-01   5.761190E-01   5.033782E-01   4.511956E-01   4.304127E-01   4.208188E-01   3.946761E-01   3.508026E-01   3.151965E-01
   6.665143E-01   7.004024E-01   7.205226E-01   7.058765E-01   6.765673E-01   6.478941E-01   6.096462E-01   5.487106E-01   4.804296E-01   4.425207E-01   4.649446E-01   5.516201E-01   6.548263E-01   6.866678E-01   6.380993E-01   5.949582E-01   6.107557E-01   6.569995E-01   6.603384E-01   6.095462E-01   5.739267E-01   5.958135E-01   6.403297E-01   6.325805E-01   5.706097E-01   5.312181E-01   5.599102E-01   6.309187E-01   6.656096E-01   6.277188E-01   5.741705E-01   5.624396E-01   5.962372E-01   6.422763E-01   6.676819E-01   6.715656E-01   6.750959E-01   6.941456E-01   7.280852E-01   7.607200E-01   7.730128E-01   7.670654E-01   7.692520E-01   7.973194E-01   8.299190E-01   8.244802E-01   7.830390E-01   7.634836E-01   8.120083E-01   9.142508E-01   9.946922E-01   9.947494E-01   9.465733E-01   9.102881E-01   9.031703E-01   9.165431E-01   9.536939E-01   1.022948E+00   1.100754E+00   1.137077E+00   1.122982E+00   1.105497E+00   1.109792E+00   1.101573E+00   1.054042E+00   1.016472E+00   1.058423E+00   1.174332E+00   1.252101E+00   1.197065E+00   1.087488E+00   1.049842E+00   1.094517E+00   1.109221E+00   9.969302E-01   8.293191E-01   7.303432E-01   7.373838E-01   8.127102E-01   8.766285E-01   8.781666E-01   8.541485E-01   8.717934E-01   9.506207E-01   1.033510E+00   1.029976E+00   9.456657E-01   8.911307E-01   9.449105E-01   1.070613E+00   1.105935E+00   9.660363E-01   8.074685E-01   7.818277E-01   8.927755E-01   9.852164E-01   8.707097E-01   6.460580E-01   5.019678E-01   4.656865E-01   4.728690E-01   4.514823E-01   4.040042E-01   3.893192E-01   4.374229E-01   5.165348E-01   5.368730E-01   4.675683E-01   3.907315E-01   3.752740E-01   4.356239E-01   5.438861E-01   6.204839E-01   6.104881E-01   5.643309E-01   5.525686E-01   5.804446E-01   5.867024E-01   5.204556E-01   4.270319E-01
   7.715510E-01   6.414144E-01   5.636129E-01   5.574398E-01   5.922202E-01   6.174964E-01   6.235237E-01   6.536530E-01   7.338068E-01   8.122655E-01   7.967414E-01   6.999834E-01   6.275131E-01   6.375070E-01   7.125915E-01   7.841266E-01   7.980308E-01   7.772326E-01   7.719690E-01   7.933376E-01   8.106750E-01   7.892436E-01   7.316440E-01   6.751197E-01   6.518226E-01   6.601365E-01   6.625373E-01   6.240980E-01   5.672166E-01   5.493744E-01   6.011665E-01   6.976330E-01   7.652274E-01   7.752946E-01   7.970261E-01   8.960258E-01   1.039357E+00   1.103116E+00   1.052214E+00   1.013558E+00   1.095555E+00   1.285109E+00   1.452959E+00   1.498186E+00   1.482796E+00   1.493872E+00   1.502014E+00   1.422455E+00   1.268557E+00   1.147829E+00   1.133705E+00   1.223140E+00   1.348392E+00   1.408332E+00   1.352201E+00   1.231102E+00   1.131449E+00   1.090622E+00   1.084812E+00   1.074565E+00   1.066070E+00   1.107173E+00   1.211674E+00   1.299423E+00   1.262881E+00   1.137001E+00   1.056166E+00   1.075451E+00   1.125877E+00   1.095307E+00   9.877877E-01   9.077424E-01   9.025160E-01   9.232142E-01   8.954791E-01   8.228993E-01   7.680549E-01   7.548640E-01   7.501690E-01   7.181751E-01   6.728312E-01   6.543149E-01   6.823299E-01   7.506518E-01   8.439327E-01   9.498017E-01   1.056147E+00   1.151524E+00   1.239187E+00   1.330107E+00   1.404770E+00   1.409408E+00   1.329507E+00   1.229330E+00   1.174913E+00   1.167095E+00   1.160304E+00   1.126496E+00   1.079879E+00   1.029786E+00   9.527987E-01   8.354264E-01   7.096135E-01   6.145793E-01   5.590702E-01   5.343845E-01   5.391825E-01   5.794256E-01   6.430496E-01   6.848726E-01   6.731674E-01   6.435210E-01   6.492046E-01   6.897886E-01   7.072336E-01   6.664429E-01   6.175916E-01   6.188096E-01   6.579614E-01   6.541825E-01
   7.840076E-01   7.838209E-01   7.294784E-01   7.021386E-01   7.269832E-01   7.486690E-01   7.092945E-01   6.485532E-01   6.499026E-01   7.447321E-01   8.788580E-01   9.379679E-01   8.993476E-01   8.639062E-01   9.049740E-01   9.978445E-01   1.038662E+00   9.570557E-01   8.152444E-01   7.188436E-01   7.175389E-01   8.068143E-01   9.352413E-01   1.028215E+00   1.075460E+00   1.143010E+00   1.259148E+00   1.331516E+00   1.250434E+00   1.096697E+00   1.048338E+00   1.186065E+00   1.438950E+00   1.582420E+00   1.522547E+00   1.466492E+00   1.616048E+00   1.982680E+00   2.337294E+00   2.394948E+00   2.194947E+00   1.958348E+00   1.767603E+00   1.587249E+00   1.403990E+00   1.265176E+00   1.223035E+00   1.292280E+00   1.426627E+00   1.497986E+00   1.386828E+00   1.154838E+00   9.736931E-01   9.284188E-01   9.886258E-01   1.043900E+00   1.005682E+00   9.255751E-01   8.999323E-01   9.371269E-01   9.545796E-01   8.878214E-01   7.900131E-01   7.433264E-01   7.596933E-01   7.875189E-01   7.740290E-01   7.295718E-01   7.003787E-01   7.064165E-01   7.299546E-01   7.371733E-01   7.090516E-01   6.603927E-01   6.292930E-01   6.490265E-01   7.225739E-01   8.011736E-01   8.110979E-01   7.538508E-01   7.089488E-01   7.273585E-01   7.886027E-01   8.328542E-01   8.465593E-01   8.872643E-01   9.963302E-01   1.125211E+00   1.170913E+00   1.133334E+00   1.131068E+00   1.249672E+00   1.459349E+00   1.611886E+00   1.578678E+00   1.405323E+00   1.220892E+00   1.100878E+00   1.059118E+00   1.077032E+00   1.117011E+00   1.142619E+00   1.143924E+00   1.122896E+00   1.057975E+00   9.291273E-01   7.787354E-01   6.812566E-01   6.673715E-01   7.054756E-01   7.225006E-01   6.830489E-01   6.377270E-01   6.430886E-01   6.960722E-01   7.394047E-01   7.263928E-01   6.776444E-01   6.310225E-01   5.868805E-01
   9.747692E-01   1.002816E+00   9.392850E-01   8.932402E-01   9.466228E-01   1.068508E+00   1.138562E+00   1.108526E+00   1.082527E+00   1.149133E+00   1.257939E+00   1.257148E+00   1.110173E+00   9.562081E-01   8.992285E-01   9.343204E-01   9.985682E-01   1.033110E+00   1.028586E+00   1.006644E+00   9.873496E-01   9.900924E-01   1.035195E+00   1.129068E+00   1.255929E+00   1.393533E+00   1.527099E+00   1.626590E+00   1.637304E+00   1.552069E+00   1.458178E+00   1.451369E+00   1.542803E+00   1.644913E+00   1.652132E+00   1.566430E+00   1.475910E+00   1.442236E+00   1.476139E+00   1.565659E+00   1.671978E+00   1.707263E+00   1.597477E+00   1.394447E+00   1.218797E+00   1.117087E+00   1.049319E+00   9.775215E-01   9.349042E-01   9.826165E-01   1.122296E+00   1.245272E+00   1.231987E+00   1.145943E+00   1.133601E+00   1.218340E+00   1.255472E+00   1.101383E+00   8.595654E-01   7.067775E-01   6.855069E-01   7.476091E-01   8.037401E-01   7.925987E-01   7.408170E-01   6.989977E-01   6.715255E-01   6.271712E-01   5.546647E-01   4.914692E-01   4.870418E-01   5.676994E-01   7.085355E-01   7.940652E-01   7.375771E-01   6.378831E-01   6.237133E-01   7.245786E-01   8.573274E-01   8.709630E-01   7.711481E-01   6.997425E-01   7.102706E-01   7.350591E-01   6.839384E-01   5.920432E-01   5.636634E-01   6.448572E-01   7.949281E-01   8.788075E-01   8.249906E-01   7.381714E-01   7.241815E-01   7.940900E-01   8.833901E-01   9.070530E-01   8.616034E-01   8.256716E-01   8.624367E-01   9.667505E-01   1.052528E+00   1.024691E+00   9.158831E-01   8.361350E-01   8.274763E-01   8.374006E-01   7.899150E-01   6.991416E-01   6.453933E-01   6.606194E-01   6.927685E-01   6.534216E-01   5.455879E-01   4.587839E-01   4.453511E-01   5.057753E-01   6.122042E-01   7.196426E-01   7.940577E-01   8.262392E-01
   1.058842E+00   1.142705E+00   1.329021E+00   1.476996E+00   1.430493E+00   1.232292E+00   1.049099E+00   9.730455E-01   1.001682E+00   1.079622E+00   1.137372E+00   1.156447E+00   1.177151E+00   1.211236E+00   1.186713E+00   1.044252E+00   8.690907E-01   7.939062E-01   8.717030E-01   1.060947E+00   1.211559E+00   1.219740E+00   1.191389E+00   1.257062E+00   1.396866E+00   1.462397E+00   1.387800E+00   1.293727E+00   1.282385E+00   1.311917E+00   1.269233E+00   1.142667E+00   1.040186E+00   1.038871E+00   1.126887E+00   1.227102E+00   1.263091E+00   1.232749E+00   1.188294E+00   1.167447E+00   1.166828E+00   1.156133E+00   1.117573E+00   1.079851E+00   1.097117E+00   1.192874E+00   1.319469E+00   1.384657E+00   1.369401E+00   1.353715E+00   1.384667E+00   1.400971E+00   1.326393E+00   1.217626E+00   1.204255E+00   1.338564E+00   1.531403E+00   1.594744E+00   1.474177E+00   1.300727E+00   1.160209E+00   1.029672E+00   8.863462E-01   7.657998E-01   7.041052E-01   6.888391E-01   6.737921E-01   6.302444E-01   5.765762E-01   5.429918E-01   5.378092E-01   5.533514E-01   5.809360E-01   6.106223E-01   6.234647E-01   6.043122E-01   5.658042E-01   5.375111E-01   5.340960E-01   5.470821E-01   5.611396E-01   5.720030E-01   5.828559E-01   5.903251E-01   5.888471E-01   5.855653E-01   5.947792E-01   6.184735E-01   6.454352E-01   6.736236E-01   7.194074E-01   7.912635E-01   8.657985E-01   9.165278E-01   9.675124E-01   1.067746E+00   1.200379E+00   1.251501E+00   1.165990E+00   1.071575E+00   1.112935E+00   1.313165E+00   1.527232E+00   1.543679E+00   1.386695E+00   1.233054E+00   1.127087E+00   9.937494E-01   8.120369E-01   6.669362E-01   6.284502E-01   7.009110E-01   8.223031E-01   8.683012E-01   7.864732E-01   6.708180E-01   6.167212E-01   6.409764E-01   6.991806E-01   7.221797E-01