## BTN for MT3DMS, generated by Flopy.
##
         1        36       120         2         1         1
D   M   KG  
T T T F T 
 0
         0      0.25                           -1 #delr
         0         1                           -1 #delc
         0         0                           -1 #htop
        31         1         (120E15.6)        -1 #dz layer 1
   2.500000E-01   2.500000E-01   2.500000E-01   2.500000E-01   2.500000E-01   2.500000E-01   2.500000E-01   2.500000E-01   2.500000E-01   2.500000E-01   2.500000E-01   2.500000E-01   2.500000E-01   2.500000E-01   2.500000E-01   2.500000E-01   2.500000E-01   2.500000E-01   2.500000E-01   2.500000E-01   2.500000E-01   2.500000E-01   2.500000E-01   2.500000E-01   2.500000E-01   2.500000E-01   2.500000E-01   2.500000E-01   2.500000E-01   2.500000E-01   2.500000E-01   2.500000E-01   2.500000E-01   2.500000E-01   2.500000E-01   2.500000E-01   2.500000E-01   2.500000E-01   2.500000E-01   2.500000E-01   2.500000E-01   2.500000E-01   2.500000E-01   2.500000E-01   2.500000E-01   2.500000E-01   2.500000E-01   2.500000E-01   2.500000E-01   2.500000E-01   2.500000E-01   2.500000E-01   2.500000E-01   2.500000E-01   2.500000E-01   2.500000E-01   2.500000E-01   2.500000E-01   2.500000E-01   2.500000E-01   2.500000E-01   2.500000E-01   2.500000E-01   2.500000E-01   2.500000E-01   2.500000E-01   2.500000E-01   2.500000E-01   2.500000E-01   2.500000E-01   2.500000E-01   2.500000E-01   2.500000E-01   2.500000E-01   2.500000E-01   2.500000E-01   2.500000E-01   2.500000E-01   2.500000E-01   2.500000E-01   2.500000E-01   2.500000E-01   2.500000E-01   2.500000E-01   2.500000E-01   2.500000E-01   2.500000E-01   2.500000E-01   2.500000E-01   2.500000E-01   2.500000E-01   2.500000E-01   2.500000E-01   2.500000E-01   2.500000E-01   2.500000E-01   2.500000E-01   2.500000E-01   2.500000E-01   2.500000E-01   2.500000E-01   2.500000E-01   2.500000E-01   2.500000E-01   2.500000E-01   2.500000E-01   2.500000E-01   2.500000E-01   2.500000E-01   2.500000E-01   2.500000E-01   2.500000E-01   2.500000E-01   2.500000E-01   2.500000E-01   2.500000E-01   2.500000E-01   2.500000E-01   2.500000E-01   2.500000E-01
   2.500000E-01   2.500000E-01   2.500000E-01   2.500000E-01   2.500000E-01   2.500000E-01   2.500000E-01   2.500000E-01   2.500000E-01   2.500000E-01   2.500000E-01   2.500000E-01   2.500000E-01   2.500000E-01   2.500000E-01   2.500000E-01   2.500000E-01   2.500000E-01   2.500000E-01   2.500000E-01   2.500000E-01   2.500000E-01   2.500000E-01   2.500000E-01   2.500000E-01   2.500000E-01   2.500000E-01   2.500000E-01   2.500000E-01   2.500000E-01   2.500000E-01   2.500000E-01   2.500000E-01   2.500000E-01   2.500000E-01   2.500000E-01   2.500000E-01   2.500000E-01   2.500000E-01   2.500000E-01   2.500000E-01   2.500000E-01   2.500000E-01   2.500000E-01   2.500000E-01   2.500000E-01   2.500000E-01   2.500000E-01   2.500000E-01   2.500000E-01   2.500000E-01   2.500000E-01   2.500000E-01   2.500000E-01   2.500000E-01   2.500000E-01   2.500000E-01   2.500000E-01   2.500000E-01   2.500000E-01   2.500000E-01   2.500000E-01   2.500000E-01   2.500000E-01   2.500000E-01   2.500000E-01   2.500000E-01   2.500000E-01   2.500000E-01   2.500000E-01   2.500000E-01   2.500000E-01   2.500000E-01   2.500000E-01   2.500000E-01   2.500000E-01   2.500000E-01   2.500000E-01   2.500000E-01   2.500000E-01   2.500000E-01   2.500000E-01   2.500000E-01   2.500000E-01   2.500000E-01   2.500000E-01   2.500000E-01   2.500000E-01   2.500000E-01   2.500000E-01   2.500000E-01   2.500000E-01   2.500000E-01   2.500000E-01   2.500000E-01   2.500000E-01   2.500000E-01   2.500000E-01   2.500000E-01   2.500000E-01   2.500000E-01   2.500000E-01   2.500000E-01   2.500000E-01   2.500000E-01   2.500000E-01   2.500000E-01   2.500000E-01   2.500000E-01   2.500000E-01   2.500000E-01   2.500000E-01   2.500000E-01   2.500000E-01   2.500000E-01   2.500000E-01   2.500000E-01   2.500000E-01   2.500000E-01   2.500000E-01
   2.500000E-01   2.500000E-01   2.500000E-01   2.500000E-01   2.500000E-01   2.500000E-01   2.500000E-01   2.500000E-01   2.500000E-01   2.500000E-01   2.500000E-01   2.500000E-01   2.500000E-01   2.500000E-01   2.500000E-01   2.500000E-01   2.500000E-01   2.500000E-01   2.500000E-01   2.500000E-01   2.500000E-01   2.500000E-01   2.500000E-01   2.500000E-01   2.500000E-01   2.500000E-01   2.500000E-01   2.500000E-01   2.500000E-01   2.500000E-01   2.500000E-01   2.500000E-01   2.500000E-01   2.500000E-01   2.500000E-01   2.500000E-01   2.500000E-01   2.500000E-01   2.500000E-01   2.500000E-01   2.500000E-01   2.500000E-01   2.500000E-01   2.500000E-01   2.500000E-01   2.500000E-01   2.500000E-01   2.500000E-01   2.500000E-01   2.500000E-01   2.500000E-01   2.500000E-01   2.500000E-01   2.500000E-01   2.500000E-01   2.500000E-01   2.500000E-01   2.500000E-01   2.500000E-01   2.500000E-01   2.500000E-01   2.500000E-01   2.500000E-01   2.500000E-01   2.500000E-01   2.500000E-01   2.500000E-01   2.500000E-01   2.500000E-01   2.500000E-01   2.500000E-01   2.500000E-01   2.500000E-01   2.500000E-01   2.500000E-01   2.500000E-01   2.500000E-01   2.500000E-01   2.500000E-01   2.500000E-01   2.500000E-01   2.500000E-01   2.500000E-01   2.500000E-01   2.500000E-01   2.500000E-01   2.500000E-01   2.500000E-01   2.500000E-01   2.500000E-01   2.500000E-01   2.500000E-01   2.500000E-01   2.500000E-01   2.500000E-01   2.500000E-01   2.500000E-01   2.500000E-01   2.500000E-01   2.500000E-01   2.500000E-01   2.500000E-01   2.500000E-01   2.500000E-01   2.500000E-01   2.500000E-01   2.500000E-01   2.500000E-01   2.500000E-01   2.500000E-01   2.500000E-01   2.500000E-01   2.500000E-01   2.500000E-01   2.500000E-01   2.500000E-01   2.500000E-01   2.500000E-01   2.500000E-01   2.500000E-01
   2.500000E-01   2.500000E-01   2.500000E-01   2.500000E-01   2.500000E-01   2.500000E-01   2.500000E-01   2.500000E-01   2.500000E-01   2.500000E-01   2.500000E-01   2.500000E-01   2.500000E-01   2.500000E-01   2.500000E-01   2.500000E-01   2.500000E-01   2.500000E-01   2.500000E-01   2.500000E-01   2.500000E-01   2.500000E-01   2.500000E-01   2.500000E-01   2.500000E-01   2.500000E-01   2.500000E-01   2.500000E-01   2.500000E-01   2.500000E-01   2.500000E-01   2.500000E-01   2.500000E-01   2.500000E-01   2.500000E-01   2.500000E-01   2.500000E-01   2.500000E-01   2.500000E-01   2.500000E-01   2.500000E-01   2.500000E-01   2.500000E-01   2.500000E-01   2.500000E-01   2.500000E-01   2.500000E-01   2.500000E-01   2.500000E-01   2.500000E-01   2.500000E-01   2.500000E-01   2.500000E-01   2.500000E-01   2.500000E-01   2.500000E-01   2.500000E-01   2.500000E-01   2.500000E-01   2.500000E-01   2.500000E-01   2.500000E-01   2.500000E-01   2.500000E-01   2.500000E-01   2.500000E-01   2.500000E-01   2.500000E-01   2.500000E-01   2.500000E-01   2.500000E-01   2.500000E-01   2.500000E-01   2.500000E-01   2.500000E-01   2.500000E-01   2.500000E-01   2.500000E-01   2.500000E-01   2.500000E-01   2.500000E-01   2.500000E-01   2.500000E-01   2.500000E-01   2.500000E-01   2.500000E-01   2.500000E-01   2.500000E-01   2.500000E-01   2.500000E-01   2.500000E-01   2.500000E-01   2.500000E-01   2.500000E-01   2.500000E-01   2.500000E-01   2.500000E-01   2.500000E-01   2.500000E-01   2.500000E-01   2.500000E-01   2.500000E-01   2.500000E-01   2.500000E-01   2.500000E-01   2.500000E-01   2.500000E-01   2.500000E-01   2.500000E-01   2.500000E-01   2.500000E-01   2.500000E-01   2.500000E-01   2.500000E-01   2.500000E-01   2.500000E-01   2.500000E-01   2.500000E-01   2.500000E-01   2.500000E-01
   2.500000E-01   2.500000E-01   2.500000E-01   2.500000E-01   2.500000E-01   2.500000E-01   2.500000E-01   2.500000E-01   2.500000E-01   2.500000E-01   2.500000E-01   2.500000E-01   2.500000E-01   2.500000E-01   2.500000E-01   2.500000E-01   2.500000E-01   2.500000E-01   2.500000E-01   2.500000E-01   2.500000E-01   2.500000E-01   2.500000E-01   2.500000E-01   2.500000E-01   2.500000E-01   2.500000E-01   2.500000E-01   2.500000E-01   2.500000E-01   2.500000E-01   2.500000E-01   2.500000E-01   2.500000E-01   2.500000E-01   2.500000E-01   2.500000E-01   2.500000E-01   2.500000E-01   2.500000E-01   2.500000E-01   2.500000E-01   2.500000E-01   2.500000E-01   2.500000E-01   2.500000E-01   2.500000E-01   2.500000E-01   2.500000E-01   2.500000E-01   2.500000E-01   2.500000E-01   2.500000E-01   2.500000E-01   2.500000E-01   2.500000E-01   2.500000E-01   2.500000E-01   2.500000E-01   2.500000E-01   2.500000E-01   2.500000E-01   2.500000E-01   2.500000E-01   2.500000E-01   2.500000E-01   2.500000E-01   2.500000E-01   2.500000E-01   2.500000E-01   2.500000E-01   2.500000E-01   2.500000E-01   2.500000E-01   2.500000E-01   2.500000E-01   2.500000E-01   2.500000E-01   2.500000E-01   2.500000E-01   2.500000E-01   2.500000E-01   2.500000E-01   2.500000E-01   2.500000E-01   2.500000E-01   2.500000E-01   2.500000E-01   2.500000E-01   2.500000E-01   2.500000E-01   2.500000E-01   2.500000E-01   2.500000E-01   2.500000E-01   2.500000E-01   2.500000E-01   2.500000E-01   2.500000E-01   2.500000E-01   2.500000E-01   2.500000E-01   2.500000E-01   2.500000E-01   2.500000E-01   2.500000E-01   2.500000E-01   2.500000E-01   2.500000E-01   2.500000E-01   2.500000E-01   2.500000E-01   2.500000E-01   2.500000E-01   2.500000E-01   2.500000E-01   2.500000E-01   2.500000E-01   2.500000E-01   2.500000E-01
   2.500000E-01   2.500000E-01   2.500000E-01   2.500000E-01   2.500000E-01   2.500000E-01   2.500000E-01   2.500000E-01   2.500000E-01   2.500000E-01   2.500000E-01   2.500000E-01   2.500000E-01   2.500000E-01   2.500000E-01   2.500000E-01   2.500000E-01   2.500000E-01   2.500000E-01   2.500000E-01   2.500000E-01   2.500000E-01   2.500000E-01   2.500000E-01   2.500000E-01   2.500000E-01   2.500000E-01   2.500000E-01   2.500000E-01   2.500000E-01   2.500000E-01   2.500000E-01   2.500000E-01   2.500000E-01   2.500000E-01   2.500000E-01   2.500000E-01   2.500000E-01   2.500000E-01   2.500000E-01   2.500000E-01   2.500000E-01   2.500000E-01   2.500000E-01   2.500000E-01   2.500000E-01   2.500000E-01   2.500000E-01   2.500000E-01   2.500000E-01   2.500000E-01   2.500000E-01   2.500000E-01   2.500000E-01   2.500000E-01   2.500000E-01   2.500000E-01   2.500000E-01   2.500000E-01   2.500000E-01   2.500000E-01   2.500000E-01   2.500000E-01   2.500000E-01   2.500000E-01   2.500000E-01   2.500000E-01   2.500000E-01   2.500000E-01   2.500000E-01   2.500000E-01   2.500000E-01   2.500000E-01   2.500000E-01   2.500000E-01   2.500000E-01   2.500000E-01   2.500000E-01   2.500000E-01   2.500000E-01   2.500000E-01   2.500000E-01   2.500000E-01   2.500000E-01   2.500000E-01   2.500000E-01   2.500000E-01   2.500000E-01   2.500000E-01   2.500000E-01   2.500000E-01   2.500000E-01   2.500000E-01   2.500000E-01   2.500000E-01   2.500000E-01   2.500000E-01   2.500000E-01   2.500000E-01   2.500000E-01   2.500000E-01   2.500000E-01   2.500000E-01   2.500000E-01   2.500000E-01   2.500000E-01   2.500000E-01   2.500000E-01   2.500000E-01   2.500000E-01   2.500000E-01   2.500000E-01   2.500000E-01   2.500000E-01   2.500000E-01   2.500000E-01   2.500000E-01   2.500000E-01   2.500000E-01   2.500000E-01
   2.500000E-01   2.500000E-01   2.500000E-01   2.500000E-01   2.500000E-01   2.500000E-01   2.500000E-01   2.500000E-01   2.500000E-01   2.500000E-01   2.500000E-01   2.500000E-01   2.500000E-01   2.500000E-01   2.500000E-01   2.500000E-01   2.500000E-01   2.500000E-01   2.500000E-01   2.500000E-01   2.500000E-01   2.500000E-01   2.500000E-01   2.500000E-01   2.500000E-01   2.500000E-01   2.500000E-01   2.500000E-01   2.500000E-01   2.500000E-01   2.500000E-01   2.500000E-01   2.500000E-01   2.500000E-01   2.500000E-01   2.500000E-01   2.500000E-01   2.500000E-01   2.500000E-01   2.500000E-01   2.500000E-01   2.500000E-01   2.500000E-01   2.500000E-01   2.500000E-01   2.500000E-01   2.500000E-01   2.500000E-01   2.500000E-01   2.500000E-01   2.500000E-01   2.500000E-01   2.500000E-01   2.500000E-01   2.500000E-01   2.500000E-01   2.500000E-01   2.500000E-01   2.500000E-01   2.500000E-01   2.500000E-01   2.500000E-01   2.500000E-01   2.500000E-01   2.500000E-01   2.500000E-01   2.500000E-01   2.500000E-01   2.500000E-01   2.500000E-01   2.500000E-01   2.500000E-01   2.500000E-01   2.500000E-01   2.500000E-01   2.500000E-01   2.500000E-01   2.500000E-01   2.500000E-01   2.500000E-01   2.500000E-01   2.500000E-01   2.500000E-01   2.500000E-01   2.500000E-01   2.500000E-01   2.500000E-01   2.500000E-01   2.500000E-01   2.500000E-01   2.500000E-01   2.500000E-01   2.500000E-01   2.500000E-01   2.500000E-01   2.500000E-01   2.500000E-01   2.500000E-01   2.500000E-01   2.500000E-01   2.500000E-01   2.500000E-01   2.500000E-01   2.500000E-01   2.500000E-01   2.500000E-01   2.500000E-01   2.500000E-01   2.500000E-01   2.500000E-01   2.500000E-01   2.500000E-01   2.500000E-01   2.500000E-01   2.500000E-01   2.500000E-01   2.500000E-01   2.500000E-01   2.500000E-01   2.500000E-01
   2.500000E-01   2.500000E-01   2.500000E-01   2.500000E-01   2.500000E-01   2.500000E-01   2.500000E-01   2.500000E-01   2.500000E-01   2.500000E-01   2.500000E-01   2.500000E-01   2.500000E-01   2.500000E-01   2.500000E-01   2.500000E-01   2.500000E-01   2.500000E-01   2.500000E-01   2.500000E-01   2.500000E-01   2.500000E-01   2.500000E-01   2.500000E-01   2.500000E-01   2.500000E-01   2.500000E-01   2.500000E-01   2.500000E-01   2.500000E-01   2.500000E-01   2.500000E-01   2.500000E-01   2.500000E-01   2.500000E-01   2.500000E-01   2.500000E-01   2.500000E-01   2.500000E-01   2.500000E-01   2.500000E-01   2.500000E-01   2.500000E-01   2.500000E-01   2.500000E-01   2.500000E-01   2.500000E-01   2.500000E-01   2.500000E-01   2.500000E-01   2.500000E-01   2.500000E-01   2.500000E-01   2.500000E-01   2.500000E-01   2.500000E-01   2.500000E-01   2.500000E-01   2.500000E-01   2.500000E-01   2.500000E-01   2.500000E-01   2.500000E-01   2.500000E-01   2.500000E-01   2.500000E-01   2.500000E-01   2.500000E-01   2.500000E-01   2.500000E-01   2.500000E-01   2.500000E-01   2.500000E-01   2.500000E-01   2.500000E-01   2.500000E-01   2.500000E-01   2.500000E-01   2.500000E-01   2.500000E-01   2.500000E-01   2.500000E-01   2.500000E-01   2.500000E-01   2.500000E-01   2.500000E-01   2.500000E-01   2.500000E-01   2.500000E-01   2.500000E-01   2.500000E-01   2.500000E-01   2.500000E-01   2.500000E-01   2.500000E-01   2.500000E-01   2.500000E-01   2.500000E-01   2.500000E-01   2.500000E-01   2.500000E-01   2.500000E-01   2.500000E-01   2.500000E-01   2.500000E-01   2.500000E-01   2.500000E-01   2.500000E-01   2.500000E-01   2.500000E-01   2.500000E-01   2.500000E-01   2.500000E-01   2.500000E-01   2.500000E-01   2.500000E-01   2.500000E-01   2.500000E-01   2.500000E-01   2.500000E-01
   2.500000E-01   2.500000E-01   2.500000E-01   2.500000E-01   2.500000E-01   2.500000E-01   2.500000E-01   2.500000E-01   2.500000E-01   2.500000E-01   2.500000E-01   2.500000E-01   2.500000E-01   2.500000E-01   2.500000E-01   2.500000E-01   2.500000E-01   2.500000E-01   2.500000E-01   2.500000E-01   2.500000E-01   2.500000E-01   2.500000E-01   2.500000E-01   2.500000E-01   2.500000E-01   2.500000E-01   2.500000E-01   2.500000E-01   2.500000E-01   2.500000E-01   2.500000E-01   2.500000E-01   2.500000E-01   2.500000E-01   2.500000E-01   2.500000E-01   2.500000E-01   2.500000E-01   2.500000E-01   2.500000E-01   2.500000E-01   2.500000E-01   2.500000E-01   2.500000E-01   2.500000E-01   2.500000E-01   2.500000E-01   2.500000E-01   2.500000E-01   2.500000E-01   2.500000E-01   2.500000E-01   2.500000E-01   2.500000E-01   2.500000E-01   2.500000E-01   2.500000E-01   2.500000E-01   2.500000E-01   2.500000E-01   2.500000E-01   2.500000E-01   2.500000E-01   2.500000E-01   2.500000E-01   2.500000E-01   2.500000E-01   2.500000E-01   2.500000E-01   2.500000E-01   2.500000E-01   2.500000E-01   2.500000E-01   2.500000E-01   2.500000E-01   2.500000E-01   2.500000E-01   2.500000E-01   2.500000E-01   2.500000E-01   2.500000E-01   2.500000E-01   2.500000E-01   2.500000E-01   2.500000E-01   2.500000E-01   2.500000E-01   2.500000E-01   2.500000E-01   2.500000E-01   2.500000E-01   2.500000E-01   2.500000E-01   2.500000E-01   2.500000E-01   2.500000E-01   2.500000E-01   2.500000E-01   2.500000E-01   2.500000E-01   2.500000E-01   2.500000E-01   2.500000E-01   2.500000E-01   2.500000E-01   2.500000E-01   2.500000E-01   2.500000E-01   2.500000E-01   2.500000E-01   2.500000E-01   2.500000E-01   2.500000E-01   2.500000E-01   2.500000E-01   2.500000E-01   2.500000E-01   2.500000E-01   2.500000E-01
   2.500000E-01   2.500000E-01   2.500000E-01   2.500000E-01   2.500000E-01   2.500000E-01   2.500000E-01   2.500000E-01   2.500000E-01   2.500000E-01   2.500000E-01   2.500000E-01   2.500000E-01   2.500000E-01   2.500000E-01   2.500000E-01   2.500000E-01   2.500000E-01   2.500000E-01   2.500000E-01   2.500000E-01   2.500000E-01   2.500000E-01   2.500000E-01   2.500000E-01   2.500000E-01   2.500000E-01   2.500000E-01   2.500000E-01   2.500000E-01   2.500000E-01   2.500000E-01   2.500000E-01   2.500000E-01   2.500000E-01   2.500000E-01   2.500000E-01   2.500000E-01   2.500000E-01   2.500000E-01   2.500000E-01   2.500000E-01   2.500000E-01   2.500000E-01   2.500000E-01   2.500000E-01   2.500000E-01   2.500000E-01   2.500000E-01   2.500000E-01   2.500000E-01   2.500000E-01   2.500000E-01   2.500000E-01   2.500000E-01   2.500000E-01   2.500000E-01   2.500000E-01   2.500000E-01   2.500000E-01   2.500000E-01   2.500000E-01   2.500000E-01   2.500000E-01   2.500000E-01   2.500000E-01   2.500000E-01   2.500000E-01   2.500000E-01   2.500000E-01   2.500000E-01   2.500000E-01   2.500000E-01   2.500000E-01   2.500000E-01   2.500000E-01   2.500000E-01   2.500000E-01   2.500000E-01   2.500000E-01   2.500000E-01   2.500000E-01   2.500000E-01   2.500000E-01   2.500000E-01   2.500000E-01   2.500000E-01   2.500000E-01   2.500000E-01   2.500000E-01   2.500000E-01   2.500000E-01   2.500000E-01   2.500000E-01   2.500000E-01   2.500000E-01   2.500000E-01   2.500000E-01   2.500000E-01   2.500000E-01   2.500000E-01   2.500000E-01   2.500000E-01   2.500000E-01   2.500000E-01   2.500000E-01   2.500000E-01   2.500000E-01   2.500000E-01   2.500000E-01   2.500000E-01   2.500000E-01   2.500000E-01   2.500000E-01   2.500000E-01   2.500000E-01   2.500000E-01   2.500000E-01   2.500000E-01   2.500000E-01
   2.500000E-01   2.500000E-01   2.500000E-01   2.500000E-01   2.500000E-01   2.500000E-01   2.500000E-01   2.500000E-01   2.500000E-01   2.500000E-01   2.500000E-01   2.500000E-01   2.500000E-01   2.500000E-01   2.500000E-01   2.500000E-01   2.500000E-01   2.500000E-01   2.500000E-01   2.500000E-01   2.500000E-01   2.500000E-01   2.500000E-01   2.500000E-01   2.500000E-01   2.500000E-01   2.500000E-01   2.500000E-01   2.500000E-01   2.500000E-01   2.500000E-01   2.500000E-01   2.500000E-01   2.500000E-01   2.500000E-01   2.500000E-01   2.500000E-01   2.500000E-01   2.500000E-01   2.500000E-01   2.500000E-01   2.500000E-01   2.500000E-01   2.500000E-01   2.500000E-01   2.500000E-01   2.500000E-01   2.500000E-01   2.500000E-01   2.500000E-01   2.500000E-01   2.500000E-01   2.500000E-01   2.500000E-01   2.500000E-01   2.500000E-01   2.500000E-01   2.500000E-01   2.500000E-01   2.500000E-01   2.500000E-01   2.500000E-01   2.500000E-01   2.500000E-01   2.500000E-01   2.500000E-01   2.500000E-01   2.500000E-01   2.500000E-01   2.500000E-01   2.500000E-01   2.500000E-01   2.500000E-01   2.500000E-01   2.500000E-01   2.500000E-01   2.500000E-01   2.500000E-01   2.500000E-01   2.500000E-01   2.500000E-01   2.500000E-01   2.500000E-01   2.500000E-01   2.500000E-01   2.500000E-01   2.500000E-01   2.500000E-01   2.500000E-01   2.500000E-01   2.500000E-01   2.500000E-01   2.500000E-01   2.500000E-01   2.500000E-01   2.500000E-01   2.500000E-01   2.500000E-01   2.500000E-01   2.500000E-01   2.500000E-01   2.500000E-01   2.500000E-01   2.500000E-01   2.500000E-01   2.500000E-01   2.500000E-01   2.500000E-01   2.500000E-01   2.500000E-01   2.500000E-01   2.500000E-01   2.500000E-01   2.500000E-01   2.500000E-01   2.500000E-01   2.500000E-01   2.500000E-01   2.500000E-01   2.500000E-01
   2.500000E-01   2.500000E-01   2.500000E-01   2.500000E-01   2.500000E-01   2.500000E-01   2.500000E-01   2.500000E-01   2.500000E-01   2.500000E-01   2.500000E-01   2.500000E-01   2.500000E-01   2.500000E-01   2.500000E-01   2.500000E-01   2.500000E-01   2.500000E-01   2.500000E-01   2.500000E-01   2.500000E-01   2.500000E-01   2.500000E-01   2.500000E-01   2.500000E-01   2.500000E-01   2.500000E-01   2.500000E-01   2.500000E-01   2.500000E-01   2.500000E-01   2.500000E-01   2.500000E-01   2.500000E-01   2.500000E-01   2.500000E-01   2.500000E-01   2.500000E-01   2.500000E-01   2.500000E-01   2.500000E-01   2.500000E-01   2.500000E-01   2.500000E-01   2.500000E-01   2.500000E-01   2.500000E-01   2.500000E-01   2.500000E-01   2.500000E-01   2.500000E-01   2.500000E-01   2.500000E-01   2.500000E-01   2.500000E-01   2.500000E-01   2.500000E-01   2.500000E-01   2.500000E-01   2.500000E-01   2.500000E-01   2.500000E-01   2.500000E-01   2.500000E-01   2.500000E-01   2.500000E-01   2.500000E-01   2.500000E-01   2.500000E-01   2.500000E-01   2.500000E-01   2.500000E-01   2.500000E-01   2.500000E-01   2.500000E-01   2.500000E-01   2.500000E-01   2.500000E-01   2.500000E-01   2.500000E-01   2.500000E-01   2.500000E-01   2.500000E-01   2.500000E-01   2.500000E-01   2.500000E-01   2.500000E-01   2.500000E-01   2.500000E-01   2.500000E-01   2.500000E-01   2.500000E-01   2.500000E-01   2.500000E-01   2.500000E-01   2.500000E-01   2.500000E-01   2.500000E-01   2.500000E-01   2.500000E-01   2.500000E-01   2.500000E-01   2.500000E-01   2.500000E-01   2.500000E-01   2.500000E-01   2.500000E-01   2.500000E-01   2.500000E-01   2.500000E-01   2.500000E-01   2.500000E-01   2.500000E-01   2.500000E-01   2.500000E-01   2.500000E-01   2.500000E-01   2.500000E-01   2.500000E-01   2.500000E-01
   2.500000E-01   2.500000E-01   2.500000E-01   2.500000E-01   2.500000E-01   2.500000E-01   2.500000E-01   2.500000E-01   2.500000E-01   2.500000E-01   2.500000E-01   2.500000E-01   2.500000E-01   2.500000E-01   2.500000E-01   2.500000E-01   2.500000E-01   2.500000E-01   2.500000E-01   2.500000E-01   2.500000E-01   2.500000E-01   2.500000E-01   2.500000E-01   2.500000E-01   2.500000E-01   2.500000E-01   2.500000E-01   2.500000E-01   2.500000E-01   2.500000E-01   2.500000E-01   2.500000E-01   2.500000E-01   2.500000E-01   2.500000E-01   2.500000E-01   2.500000E-01   2.500000E-01   2.500000E-01   2.500000E-01   2.500000E-01   2.500000E-01   2.500000E-01   2.500000E-01   2.500000E-01   2.500000E-01   2.500000E-01   2.500000E-01   2.500000E-01   2.500000E-01   2.500000E-01   2.500000E-01   2.500000E-01   2.500000E-01   2.500000E-01   2.500000E-01   2.500000E-01   2.500000E-01   2.500000E-01   2.500000E-01   2.500000E-01   2.500000E-01   2.500000E-01   2.500000E-01   2.500000E-01   2.500000E-01   2.500000E-01   2.500000E-01   2.500000E-01   2.500000E-01   2.500000E-01   2.500000E-01   2.500000E-01   2.500000E-01   2.500000E-01   2.500000E-01   2.500000E-01   2.500000E-01   2.500000E-01   2.500000E-01   2.500000E-01   2.500000E-01   2.500000E-01   2.500000E-01   2.500000E-01   2.500000E-01   2.500000E-01   2.500000E-01   2.500000E-01   2.500000E-01   2.500000E-01   2.500000E-01   2.500000E-01   2.500000E-01   2.500000E-01   2.500000E-01   2.500000E-01   2.500000E-01   2.500000E-01   2.500000E-01   2.500000E-01   2.500000E-01   2.500000E-01   2.500000E-01   2.500000E-01   2.500000E-01   2.500000E-01   2.500000E-01   2.500000E-01   2.500000E-01   2.500000E-01   2.500000E-01   2.500000E-01   2.500000E-01   2.500000E-01   2.500000E-01   2.500000E-01   2.500000E-01   2.500000E-01
   2.500000E-01   2.500000E-01   2.500000E-01   2.500000E-01   2.500000E-01   2.500000E-01   2.500000E-01   2.500000E-01   2.500000E-01   2.500000E-01   2.500000E-01   2.500000E-01   2.500000E-01   2.500000E-01   2.500000E-01   2.500000E-01   2.500000E-01   2.500000E-01   2.500000E-01   2.500000E-01   2.500000E-01   2.500000E-01   2.500000E-01   2.500000E-01   2.500000E-01   2.500000E-01   2.500000E-01   2.500000E-01   2.500000E-01   2.500000E-01   2.500000E-01   2.500000E-01   2.500000E-01   2.500000E-01   2.500000E-01   2.500000E-01   2.500000E-01   2.500000E-01   2.500000E-01   2.500000E-01   2.500000E-01   2.500000E-01   2.500000E-01   2.500000E-01   2.500000E-01   2.500000E-01   2.500000E-01   2.500000E-01   2.500000E-01   2.500000E-01   2.500000E-01   2.500000E-01   2.500000E-01   2.500000E-01   2.500000E-01   2.500000E-01   2.500000E-01   2.500000E-01   2.500000E-01   2.500000E-01   2.500000E-01   2.500000E-01   2.500000E-01   2.500000E-01   2.500000E-01   2.500000E-01   2.500000E-01   2.500000E-01   2.500000E-01   2.500000E-01   2.500000E-01   2.500000E-01   2.500000E-01   2.500000E-01   2.500000E-01   2.500000E-01   2.500000E-01   2.500000E-01   2.500000E-01   2.500000E-01   2.500000E-01   2.500000E-01   2.500000E-01   2.500000E-01   2.500000E-01   2.500000E-01   2.500000E-01   2.500000E-01   2.500000E-01   2.500000E-01   2.500000E-01   2.500000E-01   2.500000E-01   2.500000E-01   2.500000E-01   2.500000E-01   2.500000E-01   2.500000E-01   2.500000E-01   2.500000E-01   2.500000E-01   2.500000E-01   2.500000E-01   2.500000E-01   2.500000E-01   2.500000E-01   2.500000E-01   2.500000E-01   2.500000E-01   2.500000E-01   2.500000E-01   2.500000E-01   2.500000E-01   2.500000E-01   2.500000E-01   2.500000E-01   2.500000E-01   2.500000E-01   2.500000E-01   2.500000E-01
   2.500000E-01   2.500000E-01   2.500000E-01   2.500000E-01   2.500000E-01   2.500000E-01   2.500000E-01   2.500000E-01   2.500000E-01   2.500000E-01   2.500000E-01   2.500000E-01   2.500000E-01   2.500000E-01   2.500000E-01   2.500000E-01   2.500000E-01   2.500000E-01   2.500000E-01   2.500000E-01   2.500000E-01   2.500000E-01   2.500000E-01   2.500000E-01   2.500000E-01   2.500000E-01   2.500000E-01   2.500000E-01   2.500000E-01   2.500000E-01   2.500000E-01   2.500000E-01   2.500000E-01   2.500000E-01   2.500000E-01   2.500000E-01   2.500000E-01   2.500000E-01   2.500000E-01   2.500000E-01   2.500000E-01   2.500000E-01   2.500000E-01   2.500000E-01   2.500000E-01   2.500000E-01   2.500000E-01   2.500000E-01   2.500000E-01   2.500000E-01   2.500000E-01   2.500000E-01   2.500000E-01   2.500000E-01   2.500000E-01   2.500000E-01   2.500000E-01   2.500000E-01   2.500000E-01   2.500000E-01   2.500000E-01   2.500000E-01   2.500000E-01   2.500000E-01   2.500000E-01   2.500000E-01   2.500000E-01   2.500000E-01   2.500000E-01   2.500000E-01   2.500000E-01   2.500000E-01   2.500000E-01   2.500000E-01   2.500000E-01   2.500000E-01   2.500000E-01   2.500000E-01   2.500000E-01   2.500000E-01   2.500000E-01   2.500000E-01   2.500000E-01   2.500000E-01   2.500000E-01   2.500000E-01   2.500000E-01   2.500000E-01   2.500000E-01   2.500000E-01   2.500000E-01   2.500000E-01   2.500000E-01   2.500000E-01   2.500000E-01   2.500000E-01   2.500000E-01   2.500000E-01   2.500000E-01   2.500000E-01   2.500000E-01   2.500000E-01   2.500000E-01   2.500000E-01   2.500000E-01   2.500000E-01   2.500000E-01   2.500000E-01   2.500000E-01   2.500000E-01   2.500000E-01   2.500000E-01   2.500000E-01   2.500000E-01   2.500000E-01   2.500000E-01   2.500000E-01   2.500000E-01   2.500000E-01   2.500000E-01
   2.500000E-01   2.500000E-01   2.500000E-01   2.500000E-01   2.500000E-01   2.500000E-01   2.500000E-01   2.500000E-01   2.500000E-01   2.500000E-01   2.500000E-01   2.500000E-01   2.500000E-01   2.500000E-01   2.500000E-01   2.500000E-01   2.500000E-01   2.500000E-01   2.500000E-01   2.500000E-01   2.500000E-01   2.500000E-01   2.500000E-01   2.500000E-01   2.500000E-01   2.500000E-01   2.500000E-01   2.500000E-01   2.500000E-01   2.500000E-01   2.500000E-01   2.500000E-01   2.500000E-01   2.500000E-01   2.500000E-01   2.500000E-01   2.500000E-01   2.500000E-01   2.500000E-01   2.500000E-01   2.500000E-01   2.500000E-01   2.500000E-01   2.500000E-01   2.500000E-01   2.500000E-01   2.500000E-01   2.500000E-01   2.500000E-01   2.500000E-01   2.500000E-01   2.500000E-01   2.500000E-01   2.500000E-01   2.500000E-01   2.500000E-01   2.500000E-01   2.500000E-01   2.500000E-01   2.500000E-01   2.500000E-01   2.500000E-01   2.500000E-01   2.500000E-01   2.500000E-01   2.500000E-01   2.500000E-01   2.500000E-01   2.500000E-01   2.500000E-01   2.500000E-01   2.500000E-01   2.500000E-01   2.500000E-01   2.500000E-01   2.500000E-01   2.500000E-01   2.500000E-01   2.500000E-01   2.500000E-01   2.500000E-01   2.500000E-01   2.500000E-01   2.500000E-01   2.500000E-01   2.500000E-01   2.500000E-01   2.500000E-01   2.500000E-01   2.500000E-01   2.500000E-01   2.500000E-01   2.500000E-01   2.500000E-01   2.500000E-01   2.500000E-01   2.500000E-01   2.500000E-01   2.500000E-01   2.500000E-01   2.500000E-01   2.500000E-01   2.500000E-01   2.500000E-01   2.500000E-01   2.500000E-01   2.500000E-01   2.500000E-01   2.500000E-01   2.500000E-01   2.500000E-01   2.500000E-01   2.500000E-01   2.500000E-01   2.500000E-01   2.500000E-01   2.500000E-01   2.500000E-01   2.500000E-01   2.500000E-01