# File generated by Flopy version 3.9.1 on 03/01/2025 at 08:10:42.
BEGIN options
  SAVE_FLOWS
END options

BEGIN packages
  DIS6  gwf-p09-mf6.dis  dis
  IC6  gwf-p09-mf6.ic  ic
  NPF6  gwf-p09-mf6.npf  npf
  STO6  gwf-p09-mf6.sto  sto
  CHD6  gwf-p09-mf6.chd  chd-1
  WEL6  gwf-p09-mf6.wel  wel-1
  OC6  gwf-p09-mf6.oc  oc
END packages

