# File generated by Flopy version 3.9.1 on 04/04/2025 at 14:33:27.
BEGIN options
END options

BEGIN sources
  WEL-1  AUX  CONCENTRATION
  CHD-1  AUX  CONCENTRATION
END sources

