# File generated by Flopy version 3.9.1 on 02/28/2025 at 15:32:15.
BEGIN options
  SCHEME  tvd
END options

