# File generated by Flopy version 3.9.1 on 04/04/2025 at 14:33:27.
BEGIN options
  XT3D_OFF
END options

BEGIN griddata
  alh
    CONSTANT      20.00000000
  ath1
    CONSTANT       4.00000000
END griddata

