# File generated by Flopy version 3.9.1 on 02/28/2025 at 15:32:15.
BEGIN options
  XT3D_OFF
END options

BEGIN griddata
  alh
    CONSTANT      20.00000000
  ath1
    CONSTANT       4.00000000
END griddata

