# File generated by Flopy version 3.8.2 on 01/26/2025 at 08:19:29.
BEGIN options
  PRINT_FLOWS
  SAVE_FLOWS
END options

BEGIN packages
  disv6  sgn.disv  disv
  ic6  sgn.ic  ic
  npf6  sgn.npf  npf
  rch6  sgn.rch  rch
  riv6  sgn.riv  riv_0
  drn6  sgn.drn  drn_0
  wel6  sgn.wel  wel_0
  ghb6  sgn.ghb  ghb_0
  obs6  sgn_4.obs  obs_5
  oc6  sgn.oc  oc
  STO6  sgn.sto  sto
END packages

