# File generated by Flopy version 3.9.1 on 02/24/2025 at 09:40:57.
BEGIN options
  BUDGET  FILEOUT  gwf-p03-mf6.bud
  HEAD  FILEOUT  gwf-p03-mf6.hds
  HEAD  PRINT_FORMAT  COLUMNS  10  WIDTH  15  DIGITS  6  general
END options

BEGIN period  1
  SAVE  head  last
  SAVE  budget  last
  PRINT  head  last
  PRINT  budget  last
END period  1

