# File generated by Flopy version 3.9.1 on 02/24/2025 at 09:40:57.
BEGIN options
  BUDGET  FILEOUT  gwt_p03-mf6.cbc
  CONCENTRATION  FILEOUT  gwt_p03-mf6.UCN
  CONCENTRATION  PRINT_FORMAT  COLUMNS  10  WIDTH  15  DIGITS  6  general
END options

BEGIN period  1
  SAVE  concentration  last
  SAVE  budget  last
  PRINT  concentration  last
  PRINT  budget  last
END period  1

