# File generated by Flopy version 3.9.1 on 02/21/2025 at 11:41:56.
BEGIN options
  XT3D_OFF
END options

BEGIN griddata
  alh
    CONSTANT      10.00000000
  ath1
    CONSTANT       3.00000000
END griddata

