# File generated by Flopy version 3.9.1 on 02/24/2025 at 09:40:57.
BEGIN options
  SCHEME  upstream
END options

