# File generated by Flopy version 3.9.1 on 06/21/2025 at 10:35:07.
BEGIN options
  BUDGET  FILEOUT  outer.cbc
  HEAD  FILEOUT  outer.hds
END options

BEGIN period  1
  SAVE  HEAD  ALL
  SAVE  BUDGET  ALL
END period  1

