# File generated by Flopy version 3.8.2 on 02/21/2025 at 07:37:26.
BEGIN Options
  PRINT_INPUT
  NEWTON
END Options

BEGIN PACKAGES
  dis6  test001e_UZF_3lay.dis
  ic6  test001e_UZF_3lay.ic
  npf6  test001e_UZF_3lay.npf
  sto6  test001e_UZF_3lay.sto
  chd6  test001e_UZF_3lay.chd
  oc6  test001e_UZF_3lay.oc
  uzf6  test001e_UZF_3lay.uzf
  obs6  test001e_UZF_3lay_obs.hed
END PACKAGES

