# File generated by Flopy version 3.9.1 on 06/29/2025 at 15:04:55.
BEGIN options
END options

BEGIN timing
  TDIS6  ex-gwf-csub-p03b.tdis
END timing

BEGIN models
  gwf6  ex-gwf-csub-p03b.nam  ex-gwf-csub-p03b
END models

BEGIN exchanges
END exchanges

BEGIN solutiongroup  1
  ims6  ex-gwf-csub-p03b.ims  ex-gwf-csub-p03b
END solutiongroup  1

