# File generated by Flopy version 3.9.1 on 06/21/2025 at 10:12:21.
BEGIN options
  PRINT_OPTION  all
END options

BEGIN linear
  INNER_MAXIMUM  100
END linear

