# File generated by Flopy version 3.9.1 on 06/02/2025 at 14:31:06.
BEGIN options
END options

BEGIN dimensions
  NPER  1
END dimensions

BEGIN perioddata
       1.00000000  1       1.00000000
END perioddata

