# File generated by Flopy version 3.9.1 on 06/02/2025 at 14:31:06.
BEGIN options
  PRINT_OPTION  all
END options

BEGIN linear
  INNER_MAXIMUM  100
END linear

