# File generated by Flopy version 3.9.1 on 06/02/2025 at 14:31:06.
BEGIN options
  BUDGET  FILEOUT  ex-gwf-toth.bud
  HEAD  FILEOUT  ex-gwf-toth.hds
END options

BEGIN period  1
  SAVE  HEAD  ALL
  SAVE  BUDGET  ALL
  PRINT  HEAD  ALL
  PRINT  BUDGET  ALL
END period  1

