# File generated by Flopy version 3.9.1 on 06/02/2025 at 14:31:06.
BEGIN options
END options

BEGIN griddata
  strt
    CONSTANT   10000.00000000
END griddata

