# File generated by Flopy version 3.9.1 on 06/21/2025 at 10:12:21.
BEGIN options
END options

BEGIN dimensions
  NPER  1
END dimensions

BEGIN perioddata
       1.00000000  1       1.00000000
END perioddata

