# WEL package for MODFLOW-2005 generated by Flopy 3.9.1
         8         0 
         8         0 # stress period 1
         1         1         1    7.714286e-05
         2         1         1    7.714286e-05
         3         1         1    7.714286e-05
         4         1         1    7.714286e-05
         5         1         1    7.714286e-05
         6         1         1    7.714286e-05
         7         1         1    7.714286e-05
         8         1         1    7.714286e-05
        -1         0 # stress period 2
        -1         0 # stress period 3
