# File generated by Flopy version 3.9.1 on 05/21/2025 at 08:13:52.
BEGIN options
  SAVE_SPECIFIC_DISCHARGE
END options

BEGIN griddata
  icelltype
    CONSTANT  1
  k
    CONSTANT       1.00000000
END griddata

