# File generated by Flopy version 3.9.1 on 03/01/2025 at 08:10:42.
BEGIN options
END options

BEGIN sources
  WEL-1  AUX  CONCENTRATION
  CHD-1  AUX  CONCENTRATION
END sources

