# File generated by Flopy version 3.9.1 on 03/01/2025 at 08:10:42.
BEGIN options
END options

BEGIN griddata
  porosity
    CONSTANT       0.30000000
END griddata

