# Name file for MT3DMS, generated by Flopy version 3.9.1.
LIST              16  mt_____06_mt.list
FTL               10  mt3d_link.ftl 
BTN               31  mt_____06_mt.btn
ADV               32  mt_____06_mt.adv
DSP               33  mt_____06_mt.dsp
SSM               34  mt_____06_mt.ssm
GCG               35  mt_____06_mt.gcg
