# File generated by Flopy version 3.9.1 on 04/11/2025 at 11:43:28.
BEGIN options
  BUDGET  FILEOUT  ex-gwf-lak-p01.cbc
  HEAD  FILEOUT  ex-gwf-lak-p01.hds
END options

BEGIN period  1
  SAVE  HEAD  LAST
  SAVE  BUDGET  LAST
END period  1

