# File generated by Flopy version 3.9.1 on 04/11/2025 at 11:43:28.
BEGIN options
END options

BEGIN griddata
  strt
    CONSTANT     115.00000000
END griddata

