# File generated by Flopy version 3.9.1 on 07/28/2025 at 13:31:40.
BEGIN options
END options

BEGIN griddata
  strt
    CONSTANT     100.00000000
END griddata

