## BTN for MT3DMS, generated by Flopy.
##
         8         1        24         3         1         1
D   M   KG  
T T T F T 
 0 0 0 0 0 0 0 0
         0      0.05                           -1 #delr
         0      0.03                           -1 #delc
         0         0                           -1 #htop
        31         1          (24E15.6)        -1 #dz layer 1
   5.000000E-02   5.000000E-02   5.000000E-02   5.000000E-02   5.000000E-02   5.000000E-02   5.000000E-02   5.000000E-02   5.000000E-02   5.000000E-02   5.000000E-02   5.000000E-02   5.000000E-02   5.000000E-02   5.000000E-02   5.000000E-02   5.000000E-02   5.000000E-02   5.000000E-02   5.000000E-02   5.000000E-02   5.000000E-02   5.000000E-02   5.000000E-02
        31         1          (24E15.6)        -1 #dz layer 2
   5.000000E-02   5.000000E-02   5.000000E-02   5.000000E-02   5.000000E-02   5.000000E-02   5.000000E-02   5.000000E-02   5.000000E-02   5.000000E-02   5.000000E-02   5.000000E-02   5.000000E-02   5.000000E-02   5.000000E-02   5.000000E-02   5.000000E-02   5.000000E-02   5.000000E-02   5.000000E-02   5.000000E-02   5.000000E-02   5.000000E-02   5.000000E-02
        31         1          (24E15.6)        -1 #dz layer 3
   5.000000E-02   5.000000E-02   5.000000E-02   5.000000E-02   5.000000E-02   5.000000E-02   5.000000E-02   5.000000E-02   5.000000E-02   5.000000E-02   5.000000E-02   5.000000E-02   5.000000E-02   5.000000E-02   5.000000E-02   5.000000E-02   5.000000E-02   5.000000E-02   5.000000E-02   5.000000E-02   5.000000E-02   5.000000E-02   5.000000E-02   5.000000E-02
        31         1          (24E15.6)        -1 #dz layer 4
   5.000000E-02   5.000000E-02   5.000000E-02   5.000000E-02   5.000000E-02   5.000000E-02   5.000000E-02   5.000000E-02   5.000000E-02   5.000000E-02   5.000000E-02   5.000000E-02   5.000000E-02   5.000000E-02   5.000000E-02   5.000000E-02   5.000000E-02   5.000000E-02   5.000000E-02   5.000000E-02   5.000000E-02   5.000000E-02   5.000000E-02   5.000000E-02
        31         1          (24E15.6)        -1 #dz layer 5
   5.000000E-02   5.000000E-02   5.000000E-02   5.000000E-02   5.000000E-02   5.000000E-02   5.000000E-02   5.000000E-02   5.000000E-02   5.000000E-02   5.000000E-02   5.000000E-02   5.000000E-02   5.000000E-02   5.000000E-02   5.000000E-02   5.000000E-02   5.000000E-02   5.000000E-02   5.000000E-02   5.000000E-02   5.000000E-02   5.000000E-02   5.000000E-02
        31         1          (24E15.6)        -1 #dz layer 6
   5.000001E-02   5.000001E-02   5.000001E-02   5.000001E-02   5.000001E-02   5.000001E-02   5.000001E-02   5.000001E-02   5.000001E-02   5.000001E-02   5.000001E-02   5.000001E-02   5.000001E-02   5.000001E-02   5.000001E-02   5.000001E-02   5.000001E-02   5.000001E-02   5.000001E-02   5.000001E-02   5.000001E-02   5.000001E-02   5.000001E-02   5.000001E-02
        31         1          (24E15.6)        -1 #dz layer 7
   4.999998E-02   4.999998E-02   4.999998E-02   4.999998E-02   4.999998E-02   4.999998E-02   4.999998E-02   4.999998E-02   4.999998E-02   4.999998E-02   4.999998E-02   4.999998E-02   4.999998E-02   4.999998E-02   4.999998E-02   4.999998E-02   4.999998E-02   4.999998E-02   4.999998E-02   4.999998E-02   4.999998E-02   4.999998E-02   4.999998E-02   4.999998E-02
        31         1          (24E15.6)        -1 #dz layer 8
   5.000001E-02   5.000001E-02   5.000001E-02   5.000001E-02   5.000001E-02   5.000001E-02   5.000001E-02   5.000001E-02   5.000001E-02   5.000001E-02   5.000001E-02   5.000001E-02   5.000001E-02   5.000001E-02   5.000001E-02   5.000001E-02   5.000001E-02   5.000001E-02   5.000001E-02   5.000001E-02   5.000001E-02   5.000001E-02   5.000001E-02   5.000001E-02
        31         1          (24E15.6)        -1 #prsity layer 1
   4.000000E-01   4.000000E-01   4.000000E-01   4.000000E-01   4.000000E-01   4.000000E-01   4.000000E-01   4.000000E-01   4.000000E-01   4.000000E-01   4.000000E-01   4.000000E-01   4.000000E-01   4.000000E-01   4.000000E-01   4.000000E-01   4.000000E-01   4.000000E-01   4.000000E-01   4.000000E-01   4.000000E-01   4.000000E-01   4.000000E-01   4.000000E-01
        31         1          (24E15.6)        -1 #prsity layer 2
   4.000000E-01   4.000000E-01   4.000000E-01   4.000000E-01   4.000000E-01   4.000000E-01   4.000000E-01   4.000000E-01   4.000000E-01   4.000000E-01   4.000000E-01   4.000000E-01   4.000000E-01   4.000000E-01   4.000000E-01   4.000000E-01   4.000000E-01   4.000000E-01   4.000000E-01   4.000000E-01   4.000000E-01   4.000000E-01   4.000000E-01   4.000000E-01
        31         1          (24E15.6)        -1 #prsity layer 3
   4.000000E-01   4.000000E-01   4.000000E-01   5.000000E-01   5.000000E-01   5.000000E-01   5.000000E-01   5.000000E-01   5.000000E-01   5.000000E-01   5.000000E-01   5.000000E-01   5.000000E-01   5.000000E-01   5.000000E-01   5.000000E-01   5.000000E-01   5.000000E-01   5.000000E-01   5.000000E-01   5.000000E-01   4.000000E-01   4.000000E-01   4.000000E-01
        31         1          (24E15.6)        -1 #prsity layer 4
   4.000000E-01   4.000000E-01   4.000000E-01   5.000000E-01   5.000000E-01   5.000000E-01   5.000000E-01   5.000000E-01   5.000000E-01   5.000000E-01   5.000000E-01   5.000000E-01   5.000000E-01   5.000000E-01   5.000000E-01   5.000000E-01   5.000000E-01   5.000000E-01   5.000000E-01   5.000000E-01   5.000000E-01   4.000000E-01   4.000000E-01   4.000000E-01
        31         1          (24E15.6)        -1 #prsity layer 5
   4.000000E-01   4.000000E-01   4.000000E-01   4.000000E-01   4.000000E-01   4.000000E-01   4.000000E-01   4.000000E-01   4.000000E-01   4.000000E-01   4.000000E-01   4.000000E-01   4.000000E-01   4.000000E-01   4.000000E-01   4.000000E-01   4.000000E-01   4.000000E-01   4.000000E-01   4.000000E-01   4.000000E-01   4.000000E-01   4.000000E-01   4.000000E-01
        31         1          (24E15.6)        -1 #prsity layer 6
   4.000000E-01   4.000000E-01   4.000000E-01   4.000000E-01   4.000000E-01   4.000000E-01   4.000000E-01   4.000000E-01   4.000000E-01   4.000000E-01   4.000000E-01   4.000000E-01   4.000000E-01   4.000000E-01   4.000000E-01   4.000000E-01   4.000000E-01   4.000000E-01   4.000000E-01   4.000000E-01   4.000000E-01   4.000000E-01   4.000000E-01   4.000000E-01
        31         1          (24E15.6)        -1 #prsity layer 7
   4.000000E-01   4.000000E-01   4.000000E-01   4.000000E-01   4.000000E-01   4.000000E-01   4.000000E-01   4.000000E-01   4.000000E-01   4.000000E-01   4.000000E-01   4.000000E-01   4.000000E-01   4.000000E-01   4.000000E-01   4.000000E-01   4.000000E-01   4.000000E-01   4.000000E-01   4.000000E-01   4.000000E-01   4.000000E-01   4.000000E-01   4.000000E-01
        31         1          (24E15.6)        -1 #prsity layer 8
   4.000000E-01   4.000000E-01   4.000000E-01   4.000000E-01   4.000000E-01   4.000000E-01   4.000000E-01   4.000000E-01   4.000000E-01   4.000000E-01   4.000000E-01   4.000000E-01   4.000000E-01   4.000000E-01   4.000000E-01   4.000000E-01   4.000000E-01   4.000000E-01   4.000000E-01   4.000000E-01   4.000000E-01   4.000000E-01   4.000000E-01   4.000000E-01
        31         1            (24I10)        -1 #icbund layer 1
         1         1         1         1         1         1         1         1         1         1         1         1         1         1         1         1         1         1         1         1         1         1         1         1
        31         1            (24I10)        -1 #icbund layer 2
         1         1         1         1         1         1         1         1         1         1         1         1         1         1         1         1         1         1         1         1         1         1         1         1
        31         1            (24I10)        -1 #icbund layer 3
         1         1         1         1         1         1         1         1         1         1         1         1         1         1         1         1         1         1         1         1         1         1         1         1
        31         1            (24I10)        -1 #icbund layer 4
         1         1         1         1         1         1         1         1         1         1         1         1         1         1         1         1         1         1         1         1         1         1         1         1
        31         1            (24I10)        -1 #icbund layer 5
         1         1         1         1         1         1         1         1         1         1         1         1         1         1         1         1         1         1         1         1         1         1         1         1
        31         1            (24I10)        -1 #icbund layer 6
         1         1         1         1         1         1         1         1         1         1         1         1         1         1         1         1         1         1         1         1         1         1         1         1
        31         1            (24I10)        -1 #icbund layer 7
         1         1         1         1         1         1         1         1         1         1         1         1         1         1         1         1         1         1         1         1         1         1         1         1
        31         1            (24I10)        -1 #icbund layer 8
         1         1         1         1         1         1         1         1         1         1         1         1         1         1         1         1         1         1         1         1         1         1         1         1
        31         1          (24E15.6)        -1 #sconc1 layer 1
   0.000000E+00   0.000000E+00   0.000000E+00   0.000000E+00   0.000000E+00   0.000000E+00   0.000000E+00   0.000000E+00   0.000000E+00   0.000000E+00   0.000000E+00   0.000000E+00   0.000000E+00   0.000000E+00   0.000000E+00   0.000000E+00   0.000000E+00   0.000000E+00   0.000000E+00   0.000000E+00   0.000000E+00   0.000000E+00   0.000000E+00   0.000000E+00
        31         1          (24E15.6)        -1 #sconc1 layer 2
   0.000000E+00   0.000000E+00   0.000000E+00   0.000000E+00   0.000000E+00   0.000000E+00   0.000000E+00   0.000000E+00   0.000000E+00   0.000000E+00   0.000000E+00   0.000000E+00   0.000000E+00   0.000000E+00   0.000000E+00   0.000000E+00   0.000000E+00   0.000000E+00   0.000000E+00   0.000000E+00   0.000000E+00   0.000000E+00   0.000000E+00   0.000000E+00
        31         1          (24E15.6)        -1 #sconc1 layer 3
   0.000000E+00   0.000000E+00   0.000000E+00   0.000000E+00   0.000000E+00   0.000000E+00   0.000000E+00   0.000000E+00   0.000000E+00   0.000000E+00   0.000000E+00   0.000000E+00   0.000000E+00   0.000000E+00   0.000000E+00   0.000000E+00   0.000000E+00   0.000000E+00   0.000000E+00   0.000000E+00   0.000000E+00   0.000000E+00   0.000000E+00   0.000000E+00
        31         1          (24E15.6)        -1 #sconc1 layer 4
   0.000000E+00   0.000000E+00   0.000000E+00   0.000000E+00   0.000000E+00   0.000000E+00   0.000000E+00   0.000000E+00   0.000000E+00   0.000000E+00   0.000000E+00   0.000000E+00   0.000000E+00   0.000000E+00   0.000000E+00   0.000000E+00   0.000000E+00   0.000000E+00   0.000000E+00   0.000000E+00   0.000000E+00   0.000000E+00   0.000000E+00   0.000000E+00
        31         1          (24E15.6)        -1 #sconc1 layer 5
   0.000000E+00   0.000000E+00   0.000000E+00   0.000000E+00   0.000000E+00   0.000000E+00   0.000000E+00   0.000000E+00   0.000000E+00   0.000000E+00   0.000000E+00   0.000000E+00   0.000000E+00   0.000000E+00   0.000000E+00   0.000000E+00   0.000000E+00   0.000000E+00   0.000000E+00   0.000000E+00   0.000000E+00   0.000000E+00   0.000000E+00   0.000000E+00
        31         1          (24E15.6)        -1 #sconc1 layer 6
   0.000000E+00   0.000000E+00   0.000000E+00   0.000000E+00   0.000000E+00   0.000000E+00   0.000000E+00   0.000000E+00   0.000000E+00   0.000000E+00   0.000000E+00   0.000000E+00   0.000000E+00   0.000000E+00   0.000000E+00   0.000000E+00   0.000000E+00   0.000000E+00   0.000000E+00   0.000000E+00   0.000000E+00   0.000000E+00   0.000000E+00   0.000000E+00
        31         1          (24E15.6)        -1 #sconc1 layer 7
   0.000000E+00   0.000000E+00   0.000000E+00   0.000000E+00   0.000000E+00   0.000000E+00   0.000000E+00   0.000000E+00   0.000000E+00   0.000000E+00   0.000000E+00   0.000000E+00   0.000000E+00   0.000000E+00   0.000000E+00   0.000000E+00   0.000000E+00   0.000000E+00   0.000000E+00   0.000000E+00   0.000000E+00   0.000000E+00   0.000000E+00   0.000000E+00
        31         1          (24E15.6)        -1 #sconc1 layer 8
   0.000000E+00   0.000000E+00   0.000000E+00   0.000000E+00   0.000000E+00   0.000000E+00   0.000000E+00   0.000000E+00   0.000000E+00   0.000000E+00   0.000000E+00   0.000000E+00   0.000000E+00   0.000000E+00   0.000000E+00   0.000000E+00   0.000000E+00   0.000000E+00   0.000000E+00   0.000000E+00   0.000000E+00   0.000000E+00   0.000000E+00   0.000000E+00
     1E+30  1.00E-02
         0         0         0         0         T
       100
0.0000E+008.2000E-011.6400E+002.4600E+003.2800E+004.1000E+004.9200E+005.7400E+00
6.5600E+007.3800E+008.2000E+009.0200E+009.8400E+001.0660E+011.1480E+011.2300E+01
1.3120E+011.3940E+011.4760E+011.5580E+011.6400E+011.7220E+011.8040E+011.8860E+01
1.9680E+012.0500E+012.1320E+012.2140E+012.2960E+012.3780E+012.4600E+012.5420E+01
2.6240E+012.7060E+012.7880E+012.8700E+012.9520E+013.0340E+013.1160E+013.1980E+01
3.2800E+013.3620E+013.4440E+013.5260E+013.6080E+013.6900E+013.7720E+013.8540E+01
3.9360E+014.0180E+014.1000E+014.1820E+014.2640E+014.3460E+014.4280E+014.5100E+01
4.5920E+014.6740E+014.7560E+014.8380E+014.9200E+015.0020E+015.0840E+015.1660E+01
5.2480E+015.3300E+015.4120E+015.4940E+015.5760E+015.6580E+015.7400E+015.8220E+01
5.9040E+015.9860E+016.0680E+016.1500E+016.2320E+016.3140E+016.3960E+016.4780E+01
6.5600E+016.6420E+016.7240E+016.8060E+016.8880E+016.9700E+017.0520E+017.1340E+01
7.2160E+017.2980E+017.3800E+017.4620E+017.5440E+017.6260E+017.7080E+017.7900E+01
7.8720E+017.9540E+018.0360E+018.1180E+01
         0         1
         T         1
        10         1         1
         0     50000         1         0
        22         1         1
         0     50000         1         0
        50         1         1
         0     50000         1         0
