# DIS package for MODFLOW-2005 generated by Flopy 3.9.1
         8         1        24         3         4         2
  0  0  0  0  0  0  0  0
CONSTANT    5.000000E-02                           #delr                          
CONSTANT    3.000000E-02                           #delc                          
CONSTANT    0.000000E+00                           #model_top                     
CONSTANT   -5.000000E-02                           #botm layer 1                  
CONSTANT   -1.000000E-01                           #botm layer 2                  
CONSTANT   -1.500000E-01                           #botm layer 3                  
CONSTANT   -2.000000E-01                           #botm layer 4                  
CONSTANT   -2.500000E-01                           #botm layer 5                  
CONSTANT   -3.000000E-01                           #botm layer 6                  
CONSTANT   -3.500000E-01                           #botm layer 7                  
CONSTANT   -4.000000E-01                           #botm layer 8                  
     10.000000             1  1.000000  SS
     22.000000             1  1.000000  SS
     50.000000             1  1.000000  SS
