# File generated by Flopy version 3.9.1 on 05/16/2025 at 11:06:01.
BEGIN options
END options

BEGIN dimensions
  MAXBOUND  1
END dimensions

BEGIN period  1
  3 11 10 -150000
END period  1

