# File generated by Flopy version 3.9.1 on 06/11/2025 at 09:26:33.
BEGIN options
END options

BEGIN griddata
  strt
    CONSTANT       0.00000000
END griddata

