# File generated by Flopy version 3.9.1 on 06/11/2025 at 09:26:33.
BEGIN options
  BUDGET  FILEOUT  ex-gwf-bcf2ss.cbc
  HEAD  FILEOUT  ex-gwf-bcf2ss.hds
END options

BEGIN period  1
  SAVE  HEAD  ALL
  SAVE  BUDGET  ALL
END period  1

