# File generated by Flopy version 3.9.1 on 07/09/2025 at 13:18:16.
BEGIN options
  READASARRAYS
END options

BEGIN period  1
  recharge
    CONSTANT       0.00400000
END period  1

