# File generated by Flopy version 3.10.0.dev3 on 06/16/2025 at 08:45:42.
BEGIN options
  XORIGIN       0.00000000
  YORIGIN       0.00000000
END options

BEGIN dimensions
  NLAY  5
  NROW  41
  NCOL  25
END dimensions

BEGIN griddata
  delr
    INTERNAL  FACTOR  1.0
      2500.00000000    2500.00000000    2500.00000000    2500.00000000    2500.00000000    2500.00000000    2500.00000000    2500.00000000    2500.00000000    2500.00000000    2500.00000000    2500.00000000    2500.00000000    2500.00000000    2500.00000000    2500.00000000    2500.00000000    2500.00000000    2500.00000000    2500.00000000    2500.00000000    2500.00000000    2500.00000000    2500.00000000    2500.00000000
  delc
    INTERNAL  FACTOR  1.0
      2500.00000000    2500.00000000    2500.00000000    2500.00000000    2500.00000000    2500.00000000    2500.00000000    2500.00000000    2500.00000000    2500.00000000    2500.00000000    2500.00000000    2500.00000000    2500.00000000    2500.00000000    2500.00000000    2500.00000000    2500.00000000    2500.00000000    2500.00000000    2500.00000000    2500.00000000    2500.00000000    2500.00000000    2500.00000000
      2500.00000000    2500.00000000    2500.00000000    2500.00000000    2500.00000000    2500.00000000    2500.00000000    2500.00000000    2500.00000000    2500.00000000    2500.00000000    2500.00000000    2500.00000000    2500.00000000    2500.00000000    2500.00000000
  top
    INTERNAL  FACTOR  1.0
       101.72914124     101.09039307     101.09845734     101.13024139     101.22142792     101.25666046     101.25666046     101.25666046     101.28726959     101.28726959     101.23593903     101.23593903     101.02922058     101.02922058     100.70333862     100.61952209      99.61818695      99.61818695      99.06137085      97.70894623      97.52515411      96.95259857      95.87101746      95.09060669      94.44600677
       101.72914124     101.72914124     101.09039307     101.09845734     101.13024139     101.22142792     101.25666046     101.25666046     101.25666046     101.28726959     101.23593903     101.23593903     101.23593903     101.02922058     100.70333862     100.61952209      99.61818695      99.61818695      99.06137085      97.70894623      97.52515411      96.95259857      95.87101746      95.09060669      94.44600677
       102.49778748     101.72914124     101.72914124     101.09039307     101.09845734     101.13024139     101.22142792     101.25666046     101.25666046     101.28726959     101.28726959     101.23593903     101.23593903     101.02922058     100.70333862     100.61952209     100.14676666      99.60565567      99.11627960      98.42719078      97.63033295      96.83052444      95.90703964      94.86996460      93.56759834
       102.49778748     102.49778748     101.72914124     101.11743927     101.09039307     101.09845734     101.13024139     101.22142792     101.25666046     101.25666046     101.28726959     101.25476837     101.23593903     101.10486603     100.87582970     100.54894829     100.12549973      99.59672546      98.99747658      98.29612160      97.49979591      96.62433434      95.63648796      94.51799202      93.21659851
       102.49778748     102.49778748     101.72914124     101.72914124     101.11743927     101.09039307     101.09845734     101.13024139     101.22142792     101.25666046     101.26985931     101.27209473     101.18500137     100.98799896     100.70263100     100.32471466      99.86116219      99.30760956      98.67218018      97.94587135      97.12798691      96.20903587      95.17629623      94.00618935      92.68061066
       102.76670074     102.49778748     102.49778748     101.72914124     101.72914124     101.11743927     101.09039307     101.09845734     101.13024139     101.22142792     101.21099854     101.12015915     100.92580605     100.65769005     100.30105782      99.87364006      99.36923981      98.78618813      98.12135124      97.37171936      96.52769852      95.58259964      94.52036858      93.32313919      91.97181129
       103.05901337     102.76670074     102.49778748     102.49778748     101.72914124     101.72914124     101.11743927     101.09039307     101.09845734     101.09973907     100.97169685     100.74442863     100.45031166     100.08860207      99.66962051      99.18452072      98.64039993      98.02343941      97.33522415      96.56623459      95.70754433      94.74667168      93.66992760      92.45775986      91.09246063
       103.35204315     103.05901337     102.76670074     102.49778748     101.72914124     101.72914124     101.33309174     101.86841583     101.03167725     100.80649185     100.49254417     100.12651634      99.71706009      99.26622772      98.77883530      98.24547386      97.65771484      97.01502228      96.30646896      95.52518082      94.65980339      93.69690704      92.62041664      91.41017532      90.04345131
       103.61625671     103.35204315     103.05901337     102.76670074     102.49778748     101.72914124     101.76096869     101.16960335     100.78570938     100.29827499      99.77942848      99.24015236      98.70773125      98.16734886      97.61483955      97.03079414      96.41285706      95.74554253      95.02383995      94.23825264      93.37760353      92.42727470      91.36754417      90.17813873      88.82905006
       103.61625671     103.61625671     103.35204315     103.05901337     102.76670074     102.25506592     101.68013954     101.02202225     100.28102303      99.50822067      98.74388123      98.03139877      97.37472534      96.75948334      96.15128899      95.53029823      94.88330650      94.19955254      93.47178650      92.69114876      91.84861183      90.92507362      89.90180779      88.75584221      87.45297050
       104.34490204     103.61625671     103.61625671     103.35204315     102.95955658     102.37607193     101.59584236     100.62763977      99.53841209      98.39835548      97.32070160      96.42414284      95.67645264      95.00958252      94.36967278      93.72187996      93.05387688      92.35864067      91.63182449      90.86636543      90.05379105      89.17827606      88.21135521      87.13643456      85.90940475
       104.34490204     104.34490204     104.07053375     103.65130424     103.17403984     102.42403221     101.38834572     100.09602356      98.51792908      96.88251114      95.38536644      94.32262802      93.55764008      92.90015221      92.25641060      91.59353828      90.90618896      90.20214653      89.48069191      88.73991203      87.97240067      87.16079521      86.28787231      85.30802155      84.19966507
       104.73616028     104.73616028     104.34490204     103.99971390     103.35262871     102.41401863     101.14162064      99.45539093      97.37352180      94.74787903      92.58437920      91.59157181      90.99964523      90.43496132      89.81321526      89.13293076      88.42135048      87.70345306      86.98921204      86.27788544      85.56790352      84.84913254      84.08530045      83.26722336      82.30392456
       105.29252625     104.82328033     104.72742271     104.27540016     103.51413155     102.42707825     100.94722939      99.00072861      96.30339813      92.43929291      88.12082481      88.09054184      88.10093880      87.67280579      87.06546021      86.33817863      85.56577301      84.82835770      84.12285614      83.44058990      82.80158806      82.18455315      81.59368515      80.95822906      80.23468018
       105.29252625     105.29252625     105.07299995     104.54012489     103.69771004     102.51261711     100.93137741      98.85027885      96.06932449      92.17864227      87.71578217      84.86111069      85.20700455      84.69593239      84.08127022      83.18267250      82.27869034      81.54077148      80.84646606      80.17084503      79.60418701      79.12932205      78.75516129      78.40900612      77.94936943
       106.12169647     105.80449677     105.40356255     104.80294991     103.90668869     102.68105125     101.08346939      99.05662727      96.50223923      93.37776566      90.02374649      86.54878807      84.27667046      82.27828026      80.96848869      79.66846657      78.35033035      77.91747665      77.14462852      76.30382919      75.94289017      75.50532341      75.50619698      75.55095482      75.48132515
       106.34687805     106.09460449     105.69232941     105.04867744     104.12843704     102.90418625     101.35292625      99.45505905      97.18305969      94.59736633      91.81693268      89.10648346      86.68756104      84.53989220      82.73311996      81.04841423      79.29252434      77.48893738      75.89110947      73.91522408      72.50474739      70.97222519      71.78060722      72.44762039      72.82909393
       106.36669159     106.28644943     105.90569496     105.25918388     104.34261703     103.14333916     101.65946579      99.89232445      97.85799217      95.58859062      93.20384789      90.81368065      88.54991722      86.45367432      84.52003479      82.68471527      80.86518669      79.06731033      77.28759003      75.47845650      73.68161964      71.76864052      69.68404770      68.92217064      70.08768845
       106.45741463     106.44571495     106.06975746     105.42732048     104.52304840     103.36063194     101.94473839     100.29001808      98.41606903      96.37094307      94.20282173      92.02139282      89.87727928      87.81737328      85.84416389      83.93562698      82.06386185      80.21551895      78.37737846      76.52749825      74.65402031      72.70726967      70.66285515      68.53992844      67.62873840
       106.62762985     106.58078575     106.18514061     105.54239273     104.65299416     103.52113152     102.15748024     100.58428001      98.82833862      96.91029739      94.90031052      92.82848167      90.76454544      88.72740173      86.73618317      84.78899193      82.87362671      80.98397255      79.10294914      77.22076988      75.31689453      73.36845016      71.35314369      69.23971367      66.92765999
       106.75945663     106.63977242     106.23796463     105.59339714     104.71114349     103.59961891     102.27337837     100.75093842      99.06231499      97.23142433      95.29038048      93.29025459      91.26088905      89.23440933      87.22868729      85.25077057      83.29899597      81.37206459      79.46072197      77.55693626      75.64609146      73.71259117      71.73632050      69.69599915      67.55681038
       106.78582573     106.63181114     106.22139359     105.56984329     104.68689537     103.58283424     102.27187157     100.77474403      99.11641312      97.31713295      95.41015053      93.42810631      91.40520859      89.36783409      87.33735657      85.32594490      83.33846474      81.37924194      79.44279099      77.52721024      75.62164497      73.71731186      71.80405235      69.86112213      67.89723396
       106.74855042     106.56211853     106.13309479     105.46523285     104.57227707     103.46021271     102.14578056     100.64659309      98.98483467      97.17999840      95.26220322      93.26203346      91.21373749      89.14289093      87.07130432      85.01241112      82.98807907      80.99340248      79.03748894      77.11358643      75.22013283      73.35137558      71.49807739      69.67992592      67.86141014
       106.66217041     106.42706680     105.96576500     105.27746773     104.36120987     103.22999763     101.89346123     100.36816978      98.66982651      96.82603645      94.85402489      92.80466843      90.69368172      88.56202507      86.42753792      84.31327438      82.23390770      80.20561981      78.22382927      76.29465866      74.41633606      72.58016014      70.78381157      69.08954239      67.45051956
       106.48210526     106.20620155     105.71913338     105.00090218     104.05665016     102.89217758     101.51742172      99.94041252      98.18400574      96.24827766      94.19076729      92.04248428      89.84878731      87.62443352      85.40332603      83.20152092      81.06478119      78.99553871      76.98416138      75.02500343      73.21102333      71.41885376      69.58333206      68.33654213      66.98059654
       106.17314911     105.90399551     105.38663101     104.63911629     103.65863991     102.45789337     101.03161812      99.38648605      97.52867317      95.47524452      93.26077080      90.98691368      88.67087746      86.33921051      83.96886826      81.64697075      79.45501328      77.37437057      75.35723877      73.74999809      72.93519783      71.96184349      70.90220642      69.80881882      68.55411720
       105.77892303     105.54220963     104.97693253     104.19061279     103.17613983     101.92979622     100.45218086      98.72283554      96.73576927      94.49558640      92.07012177      89.57506180      87.13931084      84.70150185      82.16830063      79.78723526      78.02960396      77.23455811      76.41640091      75.54313087      74.58551788      73.51549339      72.36389160      71.11753273      69.77595520
       105.47396088     105.08039856     104.47469330     103.67066193     102.60459709     101.32226944      99.79922676      98.00334167      95.86362076      93.37284279      90.53660011      87.74400330      85.23791122      82.78252602      80.83748055      80.26808548      79.65618515      78.88102913      78.01061058      77.05685234      75.98909378      74.81171608      73.53258896      72.14471054      70.66965103
       105.08039856     104.62159729     103.59868622     103.10014915     101.92273712     100.64435577      99.10616112      97.26850319      95.04264259      92.21892738      88.52486801      85.48961449      83.59666824      82.88979721      82.35052872      81.79637527      81.10474586      80.27905655      79.34626770      78.29668808      77.13302231      75.84167862      74.43029022      72.88670158      71.25962257
       104.62159729     103.59868622     103.59868622     101.67651367     101.14020920      99.89065552      98.38174629      96.57367325      94.41645622      91.69858742      87.74611664      86.19580650      85.35937691      84.57714653      83.86251640      83.13140678      82.33440018      81.43298149      80.42366982      79.29109192      78.02641678      76.62263489      75.06969261      73.36295891      71.52943230
       103.59868622     103.59868622     101.67651367     100.96144104     100.96144104      98.65974426      97.60369682      95.88323784      93.92181206      91.78232765      89.55702782      87.91988182      86.78853035      85.86619377      85.03194809      84.19359207      83.31376266      82.34068680      81.26397705      80.05751228      78.71150970      77.18747330      75.49265480      73.59112930      71.51416588
       103.59868622     103.59868622     100.96144104     100.96144104      98.65974426      98.65974426      97.10437775      95.37735748      93.28974915      91.70517540      90.17173767      88.79852867      87.68752861      86.73517227      85.85040092      84.96535110      84.02923012      83.00844955      81.87925148      80.61467934      79.19329643      77.58152962      75.73358727      73.61971664      71.21074295
       103.59868622     100.96144104     100.96144104     100.96144104      98.65974426      97.10437775      95.37735748      93.56920624      92.69839478      91.39332581      90.16832542      89.06454659      88.08753204      87.19985771      86.33197594      85.44065666      84.48513412      83.43728638      82.27430534      80.97200584      79.50488281      77.82879066      75.87783432      73.55044174      70.65744781
       100.96144104     100.96144104     100.96144104      98.65974426      98.65974426      97.10437775      95.37735748      92.69839478      91.39332581      90.28887939      90.00703430      88.94064331      88.06149673      87.29290390      86.49720764      85.64335251      84.68994904      83.63346100      82.45336914      81.13955307      79.66286469      77.97682953      76.01771355      73.63847542      70.48183441
       100.96144104     100.96144104      98.65974426      98.65974426      97.10437775      95.37735748      92.69839478      92.69839478      91.39332581      90.28887939      88.94064331      88.20022583      88.00247955      87.21867371      86.23340607      85.56366348      84.64650154      83.60182381      82.41543007      81.11207008      79.66426277      78.02684402      76.15681267      74.01395798      71.51958656
       100.96144104     100.96144104      98.65974426      98.65974426      97.10437775      92.69839478      92.69839478      91.39332581      90.28887939      90.28887939      88.94064331      88.20022583      87.21867371      87.21867371      86.23340607      84.74906158      84.50838470      82.92853546      81.69170666      80.89948845      79.47913170      77.94168091      76.20717239      74.36301231      72.50106621
       100.96144104      98.65974426      98.65974426      97.10437775      95.37735748      92.69839478      92.69839478      91.39332581      90.28887939      90.28887939      88.20022583      88.20022583      87.21867371      86.23340607      86.23340607      84.74906158      84.50838470      82.92853546      81.32525635      79.56042480      79.20593262      76.92732239      75.94422340      74.27432060      72.86680222
        98.65974426      98.65974426      98.65974426      97.10437775      92.69839478      92.69839478      91.39332581      90.28887939      90.28887939      88.94064331      88.20022583      88.20022583      87.21867371      86.23340607      86.23340607      84.74906158      82.92853546      82.92853546      81.32525635      79.56042480      79.20593262      76.92732239      75.95397186      74.19193268      72.76672363
        98.65974426      98.65974426      97.10437775      92.69839478      92.69839478      92.69839478      91.39332581      90.28887939      90.28887939      88.20022583      88.20022583      87.21867371      87.21867371      86.23340607      84.74906158      84.74906158      82.92853546      81.32525635      81.32525635      79.56042480      76.92732239      76.92732239      74.19193268      74.19193268      71.48468018
        98.65974426      98.65974426      97.10437775      92.69839478      92.69839478      91.39332581      90.28887939      90.28887939      90.28887939      88.20022583      88.20022583      87.21867371      86.23340607      86.23340607      84.74906158      84.74906158      82.92853546      81.32525635      79.56042480      79.56042480      76.92732239      76.92732239      74.19193268      74.19193268      71.48468018
        98.65974426      97.10437775      92.69839478      92.69839478      92.69839478      91.39332581      90.28887939      90.28887939      88.20022583      88.20022583      88.20022583      87.21867371      86.23340607      86.23340607      84.74906158      84.74906158      82.92853546      81.32525635      79.56042480      79.56042480      76.92732239      76.92732239      74.19193268      74.19193268      71.48468018
  botm  LAYERED
    INTERNAL  FACTOR  1.0
          96.72914124      96.09039307      96.09845734      96.13024139      96.22142792      96.25666046      96.25666046      96.25666046      96.28726959      96.28726959      96.23593903      96.23593903      96.02922058      96.02922058      95.70333862      95.61952209      94.61818695      94.61818695      94.06137085      92.70894623      92.52515411      91.95259857      90.87101746      90.09060669      89.44600677
          96.72914124      96.72914124      96.09039307      96.09845734      96.13024139      96.22142792      96.25666046      96.25666046      96.25666046      96.28726959      96.23593903      96.23593903      96.23593903      96.02922058      95.70333862      95.61952209      94.61818695      94.61818695      94.06137085      92.70894623      92.52515411      91.95259857      90.87101746      90.09060669      89.44600677
          97.49778748      96.72914124      96.72914124      96.09039307      96.09845734      96.13024139      96.22142792      96.25666046      96.25666046      96.28726959      96.28726959      96.23593903      96.23593903      96.02922058      95.70333862      95.61952209      95.14676666      94.60565567      94.11627960      93.42719078      92.63033295      91.83052444      90.90703964      89.86996460      88.56759834
          97.49778748      97.49778748      96.72914124      96.11743927      96.09039307      96.09845734      96.13024139      96.22142792      96.25666046      96.25666046      96.28726959      96.25476837      96.23593903      96.10486603      95.87582970      95.54894829      95.12549973      94.59672546      93.99747658      93.29612160      92.49979591      91.62433434      90.63648796      89.51799202      88.21659851
          97.49778748      97.49778748      96.72914124      96.72914124      96.11743927      96.09039307      96.09845734      96.13024139      96.22142792      96.25666046      96.26985931      96.27209473      96.18500137      95.98799896      95.70263100      95.32471466      94.86116219      94.30760956      93.67218018      92.94587135      92.12798691      91.20903587      90.17629623      89.00618935      87.68061066
          97.76670074      97.49778748      97.49778748      96.72914124      96.72914124      96.11743927      96.09039307      96.09845734      96.13024139      96.22142792      96.21099854      96.12015915      95.92580605      95.65769005      95.30105782      94.87364006      94.36923981      93.78618813      93.12135124      92.37171936      91.52769852      90.58259964      89.52036858      88.32313919      86.97181129
          98.05901337      97.76670074      97.49778748      97.49778748      96.72914124      96.72914124      96.11743927      96.09039307      96.09845734      96.09973907      95.97169685      95.74442863      95.45031166      95.08860207      94.66962051      94.18452072      93.64039993      93.02343941      92.33522415      91.56623459      90.70754433      89.74667168      88.66992760      87.45775986      86.09246063
          98.35204315      98.05901337      97.76670074      97.49778748      96.72914124      96.72914124      96.33309174      96.86841583      96.03167725      95.80649185      95.49254417      95.12651634      94.71706009      94.26622772      93.77883530      93.24547386      92.65771484      92.01502228      91.30646896      90.52518082      89.65980339      88.69690704      87.62041664      86.41017532      85.04345131
          98.61625671      98.35204315      98.05901337      97.76670074      97.49778748      96.72914124      96.76096869      96.16960335      95.78570938      95.29827499      94.77942848      94.24015236      93.70773125      93.16734886      92.61483955      92.03079414      91.41285706      90.74554253      90.02383995      89.23825264      88.37760353      87.42727470      86.36754417      85.17813873      83.82905006
          98.61625671      98.61625671      98.35204315      98.05901337      97.76670074      97.25506592      96.68013954      96.02202225      95.28102303      94.50822067      93.74388123      93.03139877      92.37472534      91.75948334      91.15128899      90.53029823      89.88330650      89.19955254      88.47178650      87.69114876      86.84861183      85.92507362      84.90180779      83.75584221      82.45297050
          99.34490204      98.61625671      98.61625671      98.35204315      97.95955658      97.37607193      96.59584236      95.62763977      94.53841209      93.39835548      92.32070160      91.42414284      90.67645264      90.00958252      89.36967278      88.72187996      88.05387688      87.35864067      86.63182449      85.86636543      85.05379105      84.17827606      83.21135521      82.13643456      80.90940475
          99.34490204      99.34490204      99.07053375      98.65130424      98.17403984      97.42403221      96.38834572      95.09602356      93.51792908      91.88251114      90.38536644      89.32262802      88.55764008      87.90015221      87.25641060      86.59353828      85.90618896      85.20214653      84.48069191      83.73991203      82.97240067      82.16079521      81.28787231      80.30802155      79.19966507
          99.73616028      99.73616028      99.34490204      98.99971390      98.35262871      97.41401863      96.14162064      94.45539093      92.37352180      89.74787903      87.58437920      86.59157181      85.99964523      85.43496132      84.81321526      84.13293076      83.42135048      82.70345306      81.98921204      81.27788544      80.56790352      79.84913254      79.08530045      78.26722336      77.30392456
         100.29252625      99.82328033      99.72742271      99.27540016      98.51413155      97.42707825      95.94722939      94.00072861      91.30339813      87.43929291      83.12082481      83.09054184      83.10093880      82.67280579      82.06546021      81.33817863      80.56577301      79.82835770      79.12285614      78.44058990      77.80158806      77.18455315      76.59368515      75.95822906      75.23468018
         100.29252625     100.29252625     100.07299995      99.54012489      98.69771004      97.51261711      95.93137741      93.85027885      91.06932449      87.17864227      82.71578217      79.86111069      80.20700455      79.69593239      79.08127022      78.18267250      77.27869034      76.54077148      75.84646606      75.17084503      74.60418701      74.12932205      73.75516129      73.40900612      72.94936943
         101.12169647     100.80449677     100.40356255      99.80294991      98.90668869      97.68105125      96.08346939      94.05662727      91.50223923      88.37776566      85.02374649      81.54878807      79.27667046      77.27828026      75.96848869      74.66846657      73.35033035      72.91747665      72.14462852      71.30382919      70.94289017      70.50532341      70.50619698      70.55095482      70.48132515
         101.34687805     101.09460449     100.69232941     100.04867744      99.12843704      97.90418625      96.35292625      94.45505905      92.18305969      89.59736633      86.81693268      84.10648346      81.68756104      79.53989220      77.73311996      76.04841423      74.29252434      72.48893738      70.89110947      68.91522408      67.50474739      65.97222519      66.78060722      67.44762039      67.82909393
         101.36669159     101.28644943     100.90569496     100.25918388      99.34261703      98.14333916      96.65946579      94.89232445      92.85799217      90.58859062      88.20384789      85.81368065      83.54991722      81.45367432      79.52003479      77.68471527      75.86518669      74.06731033      72.28759003      70.47845650      68.68161964      66.76864052      64.68404770      63.92217064      65.08768845
         101.45741463     101.44571495     101.06975746     100.42732048      99.52304840      98.36063194      96.94473839      95.29001808      93.41606903      91.37094307      89.20282173      87.02139282      84.87727928      82.81737328      80.84416389      78.93562698      77.06386185      75.21551895      73.37737846      71.52749825      69.65402031      67.70726967      65.66285515      63.53992844      62.62873840
         101.62762985     101.58078575     101.18514061     100.54239273      99.65299416      98.52113152      97.15748024      95.58428001      93.82833862      91.91029739      89.90031052      87.82848167      85.76454544      83.72740173      81.73618317      79.78899193      77.87362671      75.98397255      74.10294914      72.22076988      70.31689453      68.36845016      66.35314369      64.23971367      61.92765999
         101.75945663     101.63977242     101.23796463     100.59339714      99.71114349      98.59961891      97.27337837      95.75093842      94.06231499      92.23142433      90.29038048      88.29025459      86.26088905      84.23440933      82.22868729      80.25077057      78.29899597      76.37206459      74.46072197      72.55693626      70.64609146      68.71259117      66.73632050      64.69599915      62.55681038
         101.78582573     101.63181114     101.22139359     100.56984329      99.68689537      98.58283424      97.27187157      95.77474403      94.11641312      92.31713295      90.41015053      88.42810631      86.40520859      84.36783409      82.33735657      80.32594490      78.33846474      76.37924194      74.44279099      72.52721024      70.62164497      68.71731186      66.80405235      64.86112213      62.89723396
         101.74855042     101.56211853     101.13309479     100.46523285      99.57227707      98.46021271      97.14578056      95.64659309      93.98483467      92.17999840      90.26220322      88.26203346      86.21373749      84.14289093      82.07130432      80.01241112      77.98807907      75.99340248      74.03748894      72.11358643      70.22013283      68.35137558      66.49807739      64.67992592      62.86141014
         101.66217041     101.42706680     100.96576500     100.27746773      99.36120987      98.22999763      96.89346123      95.36816978      93.66982651      91.82603645      89.85402489      87.80466843      85.69368172      83.56202507      81.42753792      79.31327438      77.23390770      75.20561981      73.22382927      71.29465866      69.41633606      67.58016014      65.78381157      64.08954239      62.45051956
         101.48210526     101.20620155     100.71913338     100.00090218      99.05665016      97.89217758      96.51742172      94.94041252      93.18400574      91.24827766      89.19076729      87.04248428      84.84878731      82.62443352      80.40332603      78.20152092      76.06478119      73.99553871      71.98416138      70.02500343      68.21102333      66.41885376      64.58333206      63.33654213      61.98059654