# File generated by Flopy version 3.10.0.dev3 on 06/16/2025 at 08:45:42.
BEGIN options
  XORIGIN   62500.00000000
  YORIGIN       0.00000000
END options

BEGIN dimensions
  NLAY  5
  NROW  41
  NCOL  24
END dimensions

BEGIN griddata
  delr
    INTERNAL  FACTOR  1.0
      2500.00000000    2500.00000000    2500.00000000    2500.00000000    2500.00000000    2500.00000000    2500.00000000    2500.00000000    2500.00000000    2500.00000000    2500.00000000    2500.00000000    2500.00000000    2500.00000000    2500.00000000    2500.00000000    2500.00000000    2500.00000000    2500.00000000    2500.00000000    2500.00000000    2500.00000000    2500.00000000    2500.00000000
  delc
    INTERNAL  FACTOR  1.0
      2500.00000000    2500.00000000    2500.00000000    2500.00000000    2500.00000000    2500.00000000    2500.00000000    2500.00000000    2500.00000000    2500.00000000    2500.00000000    2500.00000000    2500.00000000    2500.00000000    2500.00000000    2500.00000000    2500.00000000    2500.00000000    2500.00000000    2500.00000000    2500.00000000    2500.00000000    2500.00000000    2500.00000000    2500.00000000
      2500.00000000    2500.00000000    2500.00000000    2500.00000000    2500.00000000    2500.00000000    2500.00000000    2500.00000000    2500.00000000    2500.00000000    2500.00000000    2500.00000000    2500.00000000    2500.00000000    2500.00000000    2500.00000000
  top
    INTERNAL  FACTOR  1.0
        92.22425842      90.56587982      90.18769073      87.03125000      87.03125000      83.31587219      83.31587219      80.09763336      75.64496613      75.64496613      70.97997284      70.97997284      67.70229340      67.19194031      67.00645447      67.00645447      66.32443237      66.26735687      66.26735687      65.70725250      65.70725250      65.15328217      65.15328217      63.83684158
        92.22425842      90.56587982      90.18769073      87.03125000      87.03125000      83.31587219      80.09763336      80.09763336      75.64496613      71.40554810      70.97997284      70.97997284      67.70229340      67.19194031      67.00645447      67.00645447      66.32443237      66.26735687      66.26735687      65.70725250      65.15328217      65.15328217      64.65097809      63.83684158
        92.05834389      90.66690063      89.24705941      87.03125000      84.60424805      83.31587219      80.09763336      76.24244690      75.64496613      71.40554810      70.97997284      68.26151276      67.70229340      67.19194031      67.00645447      67.00645447      66.32443237      66.26735687      65.70725250      65.70725250      65.15328217      65.15328217      63.83684158      63.83684158
        91.75205421      90.16724205      88.39156342      86.46804619      84.25304794      82.04062843      80.37208758      79.84074620      75.64496613      71.40554810      70.97997284      68.26151276      67.70229340      67.19194031      67.00645447      67.00645447      66.32443237      66.26735687      65.70725250      65.70725250      65.15328217      64.65097809      63.83684158      63.83684158
        91.19507980      89.54513359      87.71204567      85.69344902      83.48580933      81.11656189      78.60345078      76.05302429      73.51099968      71.49675941      70.22324753      70.10183907      70.11150667      67.19194031      67.00645447      66.48759460      66.32443237      66.26735687      65.70725250      65.15328217      65.15328217      64.65097809      63.83684158      63.17837143
        90.45553207      88.75768471      86.86601830      84.76544380      82.47023201      79.97967720      77.38485336      74.80549049      72.44614410      70.52248383      69.04629517      68.02388191      67.39005661      67.01185989      66.71934128      66.45778275      66.24124908      65.95380211      65.70725250      65.15328217      64.65097809      63.83684158      63.83684158      63.17837143
        89.55267143      87.81938362      85.86591911      83.68628883      81.25483322      78.58632851      75.74568367      72.95339584      70.47756767      68.68188286      67.57619286      66.88293457      66.51985550      66.30608368      66.16931152      66.02490997      65.86084175      65.64310837      65.35966492      64.99370956      64.53422356      63.83684158      63.17837143      62.15637970
        88.49538803      86.73777008      84.74321747      82.46779251      79.88935852      76.97715950      73.71625710      70.30547523      67.34611702      65.78948021      65.23478508      65.08948135      65.11494446      65.18137741      65.22540092      65.23344040      65.16856003      65.03504181      64.81376266      64.49567413      64.06546211      63.54226971      62.91228580      61.96985996
        87.29631805      85.53878784      83.51973152      81.18855286      78.47005653      75.29813766      71.48745728      66.89158440      61.93372250      61.43119526      62.15907764      62.76666546      63.26369381      63.65303230      63.95014858      64.11127281      64.17703533      64.13436031      63.98301601      63.72699642      63.37161541      62.90721512      62.34495735      61.69836235
        85.96207428      84.24006844      82.23615265      79.89166641      77.12025452      73.77708435      69.61396408      63.94844246      55.76970863      56.45668411      58.73924446      60.14219952      61.13223362      61.87225819      62.38502598      62.72534275      62.90066433      62.94859219      62.87314415      62.68211365      62.38836861      61.99581146      61.50672150      60.93186474
        84.49736977      82.84718132      80.91390800      78.62547874      75.90336227      72.61277580      68.58994102      63.46476936      57.39170551      53.83539009      55.58083439      57.40794277      58.83862686      59.86341572      60.59890366      61.08473301      61.36918926      61.49460316      61.48265934      61.34965515      61.11339188      60.77743149      60.35866356      59.85496330
        82.90182686      81.38240623      79.56615067      77.41180801      74.82805443      71.77275276      68.08196068      63.81030083      58.89402199      54.09160328      52.26461601      54.64474106      56.48541260      57.76418972      58.65035152      59.23679447      59.59186363      59.77426338      59.80634022      59.72008419      59.53091621      59.25303268      58.89444637      58.46585560
        81.17787361      79.81398010      78.18522072      76.21021652      73.86469841      71.06628990      67.83057594      64.15320873      60.14809799      56.02776241      52.08825302      52.21159172      54.22836876      55.62506390      56.57087326      57.19359970      57.57992268      57.78432751      57.84369850      57.78366852      57.62732506      57.39220905      57.08948708      56.72792149
        79.31672287      78.16722679      76.74769020      75.01001930      72.91138268      70.43682480      67.59659576      64.40588951      60.89731216      57.25168896      53.41691399      50.13888931      52.14694214      53.48764992      54.37707710      54.95536613      55.32055092      55.51646137      55.57577991      55.52199078      55.38056946      55.17477798      54.92242241      54.63065910
        77.30520248      76.42748070      75.25027084      73.76740074      71.95106697      69.78251076      67.27908134      64.46515846      61.39607716      58.07873726      54.54630470      50.56323338      50.24321365      51.37816715      52.04538250      52.49066639      52.78688240      52.94829082      52.98187828      52.90834427      52.76028919      52.56620502      52.35278606      52.13107872
        75.17485237      74.58961105      73.69158554      72.47670174      70.92067337      69.05141449      66.86081314      64.39575195      61.65763950      58.69110394      55.47438049      51.92859077      48.88920593      49.17807007      49.47347736      49.71229553      49.93727303      50.05569839      50.03948307      49.91447830      49.72458363      49.51723385      49.32456970      49.17744827
        72.93204308      72.70048141      72.10437584      71.13545609      69.85037422      68.24650192      66.34649467      64.15296841      61.73514271      59.09328651      56.22303963      53.12663555      49.96133327      47.49906731      46.59601974      46.39132977      46.73110580      46.83066082      46.71930790      46.50871754      46.22031212      45.96657467      45.76970291      45.68093014
        70.67301559      70.79194832      70.46696854      69.76879692      68.71186256      67.34484100      65.67958260      63.76424503      61.59904194      59.25539494      56.74836254      54.13352966      51.51929760      49.11048317      46.97022629      44.94789696      43.58854485      43.39452839      42.91806221      42.66696835      42.13375854      41.84992027      41.57053185      41.52027321
        68.50755692      68.90453720      68.82979202      68.34844589      67.50465202      66.33189201      64.88241959      63.16841888      61.26463318      59.16733265      56.94766235      54.64513874      52.35406685      50.16286182      48.08870316      46.08617496      44.13826370      42.37463665      40.53732204      39.12689495      37.63888931      37.51133347      36.50035954      36.27034187
        66.61311913      67.10312462      67.21956253      66.90636063      66.21866989      65.21289825      63.92282867      62.39978600      60.67553329      58.78980350      56.77372265      54.71289635      52.64375973      50.62906647      48.67712498      46.79391193      44.97074795      43.23576927      41.56133366      39.97505093      38.38684845      36.82707596      35.29757881      33.62361526
        65.48379135      65.32912636      65.64724350      65.45630836      64.88134003      63.98347187      62.82129192      61.42690849      59.83930779      58.10203075      56.25356960      54.35628319      52.45724297      50.58655262      48.76964283      46.99666500      45.27047157      43.59254360      41.95633030      40.36259937      38.78958321      37.23440838      35.68439293      34.09968948
        65.90295219      64.02777767      64.15428162      63.99373436      63.46045589      62.62023354      61.53173065      60.23611641      58.75035858      57.10468292      55.35914421      53.56702805      51.78090477      50.05447483      48.36123276      46.70742512      45.07006073      43.45370102      41.84416866      40.27072906      38.70968914      37.15632534      35.64240551      34.14446831
        66.03335190      64.23449516      62.78533077      62.52678585      61.94315720      61.10305309      60.05259323      58.83075905      57.40172386      55.78913689      54.08146763      52.31761837      50.63338470      49.02726364      47.48071861      45.94344330      44.41116905      42.85239697      41.22850609      39.69616318      38.17199993      36.55026054      35.11006832      33.69882011
        65.75355721      64.19417572      62.63888931      61.35402107      60.18813992      59.39590645      58.27518749      57.22820282      55.82694149      54.10794735      52.44524002      50.43072033      48.93294621      47.53569603      46.12159920      44.72208977      43.31583500      41.91845608      40.41666794      40.27762413      39.11153221      38.55170631      37.83964825      36.18509293
        65.71018219      64.72527313      63.46092606      62.16973591      60.57249451      59.02801037      57.22982025      55.81481266      54.41045761      53.02134991      51.86946964      50.51055241      49.17089081      47.71523571      46.17183495      44.58333206      44.47978306      44.66986084      44.52800083      44.26053524      43.69720078      43.05772877      42.24515533      41.01864433
        67.26705170      65.96126175      64.59769630      63.13944244      61.58027744      59.97276974      58.34059429      56.77410698      55.26805687      53.79631042      52.36197853      50.88680172      49.38056087      47.77900982      46.08458328      46.23819637      47.41658878      48.00885963      48.18691158      48.09281445      47.74619389      47.21848202      46.48812008      45.55419445
        68.36416054      66.90525627      65.39326096      63.82896900      62.21116066      60.55972767      58.90545654      57.28046608      55.67644691      54.08394337      52.48390293      50.86789608      49.22118568      47.53227901      46.77529812      49.08080101      50.49530792      51.26392460      51.61204624      51.65130806      51.44646931      51.03322124      50.44044304      49.67458153
        69.12212181      67.50834274      65.86832619      64.18050575      62.46696377      60.74326706      59.03089428      57.33774662      55.65345955      53.95315361      52.21362686      50.44588566      48.75000000      49.12049961      50.80723858      52.48342419      53.69956493      54.45196915      54.85201073      54.96862125      54.84611893      54.53438091      54.03851604      53.39883709
        69.53353500      67.77090073      65.97615433      64.15637875      62.33447361      60.51760483      58.71840477      56.97194386      55.21915245      53.42872810      51.64143372      51.38764954      52.37666416      53.47532845      54.73416996      55.91735268      56.86746979      57.52446556      57.90486813      58.04742336      57.98126602      57.72757626      57.31640911      56.76074696
        69.62933922      67.66593552      65.71243858      63.73808575      61.79168892      59.84576893      57.93571091      56.19919395      54.41173458      53.52655697      54.27019978      55.28814030      56.30346107      57.27293015      58.23428154      59.12494278      59.87067890      60.41522503      60.74943733      60.88736916      60.84251881      60.63548851      60.27699089      59.78426075
        69.35452843      67.18208504      65.04264832      62.91301250      60.81165981      58.80827141      57.44858837      57.20796394      56.95869923      57.49005604      58.17388535      58.96033669      59.77180099      60.57945347      61.34876156      62.04831219      62.63856983      63.08094788      63.35777664      63.47652149      63.43818569      63.25237560      62.93110752      62.48291779
        68.66802406      66.25572014      63.96704674      61.55619335      60.07417965      60.01768589      60.26977825      60.43320656      60.61075497      60.98087406      61.51856422      62.13785362      62.79554272      63.45798683      64.08887577      64.64828300      65.12500381      65.48482895      65.71198845      65.80503654      65.76234627      65.58878899      65.29105186      64.87436676
        67.35466766      64.79628372      62.84953594      62.25354576      62.66011047      62.85137749      63.04585743      63.25566387      63.51654243      63.87209415      64.32523346      64.84229088      65.39405441      65.94210052      66.46170425      66.93360329      67.31855583      67.61269760      67.79577255      67.86451340      67.81276894      67.64430237      67.36099434      66.96756363
        65.63893509      65.14431190      64.96308899      64.94725800      65.06744003      65.20977783      65.39016151      65.61412621      65.89316177      66.23856354      66.64955139      67.10087013      67.58001518      68.05036354      68.49559975      68.88653946      69.21405411      69.45726967      69.60372162      69.64837646      69.58806419      69.42052841      69.14726448      68.76972961
        69.13908577      67.90274048      67.32439423      67.09356880      67.04845238      67.12923813      67.28721046      67.51232338      67.79805946      68.13856506      68.52526283      68.94307899      69.37117767      69.79018593      70.18203163      70.52533340      70.80692101      71.01215553      71.12954140      71.15688896      71.08643913      70.91851616      70.65234375      70.28739738
        70.81918335      69.65760040      68.98001480      68.64075470      68.53212357      68.57709503      68.73020744      68.96230125      69.25828171      69.60327911      69.98380089      70.38415146      70.78904152      71.17814636      71.53711700      71.84801483      72.09854317      72.27506638      72.37330627      72.38517189      72.30803108      72.13914299      71.87772942      71.52485275
        71.51357269      70.55366898      69.92472076      69.59318924      69.48475456      69.54035187      69.71821022      69.96969414      70.29204559      70.65553284      71.04404068      71.44784737      71.84582710      72.22264290      72.56596756      72.86018562      73.09151077      73.25146103      73.33390427      73.33522606      73.25220680      73.08270073      72.82576370      72.48124123
        71.48468018      70.69788361      70.36395454      69.95144844      69.90430641      70.01248741      70.26134872      70.53792381      70.90468407      71.31356239      71.71663094      72.14780807      72.55665779      72.93185616      73.27836990      73.57134247      73.79155922      73.93918610      74.01151466      74.00572014      73.91905594      73.74918938      73.49554062      73.15879822
        71.48468018      70.69788361      69.99037933      69.95941925      69.92266083      70.30052185      70.36140442      70.68718719      71.39093018      71.72327805      72.05290604      72.54374313      72.93296814      73.30119324      73.67906570      73.99649811      74.20307541      74.34100342      74.40714836      74.39712715      74.30812073      74.13821602      73.88693428      73.55500603
        71.48468018      70.69788361      69.99037933      69.95941925      69.92266083      70.30052185      70.36140442      70.68718719      71.39093018      71.62206268      71.94172668      72.72032166      72.94808960      73.38510132      74.00769043      74.15404510      74.30648804      74.46693420      74.51824951      74.50476837      74.43309021      74.22922516      74.02872467      73.63239288
        71.48468018      70.69788361      69.99037933      69.95941925      69.92266083      70.30052185      70.36140442      71.39093018      71.39093018      71.62206268      72.72032166      72.72032166      72.94808960      73.38510132      74.00769043      74.15404510      74.30648804      74.46693420      74.51824951      74.50476837      74.43309021      74.22922516      74.02872467      73.63239288
  botm  LAYERED
    INTERNAL  FACTOR  1.0
          87.22425842      85.56587982      85.18769073      82.03125000      82.03125000      78.31587219      78.31587219      75.09763336      70.64496613      70.64496613      65.97997284      65.97997284      62.70229340      62.19194031      62.00645447      62.00645447      61.32443237      61.26735687      61.26735687      60.70725250      60.70725250      60.15328217      60.15328217      58.83684158
          87.22425842      85.56587982      85.18769073      82.03125000      82.03125000      78.31587219      75.09763336      75.09763336      70.64496613      66.40554810      65.97997284      65.97997284      62.70229340      62.19194031      62.00645447      62.00645447      61.32443237      61.26735687      61.26735687      60.70725250      60.15328217      60.15328217      59.65097809      58.83684158
          87.05834389      85.66690063      84.24705941      82.03125000      79.60424805      78.31587219      75.09763336      71.24244690      70.64496613      66.40554810      65.97997284      63.26151276      62.70229340      62.19194031      62.00645447      62.00645447      61.32443237      61.26735687      60.70725250      60.70725250      60.15328217      60.15328217      58.83684158      58.83684158
          86.75205421      85.16724205      83.39156342      81.46804619      79.25304794      77.04062843      75.37208758      74.84074620      70.64496613      66.40554810      65.97997284      63.26151276      62.70229340      62.19194031      62.00645447      62.00645447      61.32443237      61.26735687      60.70725250      60.70725250      60.15328217      59.65097809      58.83684158      58.83684158
          86.19507980      84.54513359      82.71204567      80.69344902      78.48580933      76.11656189      73.60345078      71.05302429      68.51099968      66.49675941      65.22324753      65.10183907      65.11150667      62.19194031      62.00645447      61.48759460      61.32443237      61.26735687      60.70725250      60.15328217      60.15328217      59.65097809      58.83684158      58.17837143
          85.45553207      83.75768471      81.86601830      79.76544380      77.47023201      74.97967720      72.38485336      69.80549049      67.44614410      65.52248383      64.04629517      63.02388191      62.39005661      62.01185989      61.71934128      61.45778275      61.24124908      60.95380211      60.70725250      60.15328217      59.65097809      58.83684158      58.83684158      58.17837143
          84.55267143      82.81938362      80.86591911      78.68628883      76.25483322      73.58632851      70.74568367      67.95339584      65.47756767      63.68188286      62.57619286      61.88293457      61.51985550      61.30608368      61.16931152      61.02490997      60.86084175      60.64310837      60.35966492      59.99370956      59.53422356      58.83684158      58.17837143      57.15637970
          83.49538803      81.73777008      79.74321747      77.46779251      74.88935852      71.97715950      68.71625710      65.30547523      62.34611702      60.78948021      60.23478508      60.08948135      60.11494446      60.18137741      60.22540092      60.23344040      60.16856003      60.03504181      59.81376266      59.49567413      59.06546211      58.54226971      57.91228580      56.96985996
          82.29631805      80.53878784      78.51973152      76.18855286      73.47005653      70.29813766      66.48745728      61.89158440      56.93372250      56.43119526      57.15907764      57.76666546      58.26369381      58.65303230      58.95014858      59.11127281      59.17703533      59.13436031      58.98301601      58.72699642      58.37161541      57.90721512      57.34495735      56.69836235
          80.96207428      79.24006844      77.23615265      74.89166641      72.12025452      68.77708435      64.61396408      58.94844246      50.76970863      51.45668411      53.73924446      55.14219952      56.13223362      56.87225819      57.38502598      57.72534275      57.90066433      57.94859219      57.87314415      57.68211365      57.38836861      56.99581146      56.50672150      55.93186474
          79.49736977      77.84718132      75.91390800      73.62547874      70.90336227      67.61277580      63.58994102      58.46476936      52.39170551      48.83539009      50.58083439      52.40794277      53.83862686      54.86341572      55.59890366      56.08473301      56.36918926      56.49460316      56.48265934      56.34965515      56.11339188      55.77743149      55.35866356      54.85496330
          77.90182686      76.38240623      74.56615067      72.41180801      69.82805443      66.77275276      63.08196068      58.81030083      53.89402199      49.09160328      47.26461601      49.64474106      51.48541260      52.76418972      53.65035152      54.23679447      54.59186363      54.77426338      54.80634022      54.72008419      54.53091621      54.25303268      53.89444637      53.46585560
          76.17787361      74.81398010      73.18522072      71.21021652      68.86469841      66.06628990      62.83057594      59.15320873      55.14809799      51.02776241      47.08825302      47.21159172      49.22836876      50.62506390      51.57087326      52.19359970      52.57992268      52.78432751      52.84369850      52.78366852      52.62732506      52.39220905      52.08948708      51.72792149
          74.31672287      73.16722679      71.74769020      70.01001930      67.91138268      65.43682480      62.59659576      59.40588951      55.89731216      52.25168896      48.41691399      45.13888931      47.14694214      48.48764992      49.37707710      49.95536613      50.32055092      50.51646137      50.57577991      50.52199078      50.38056946      50.17477798      49.92242241      49.63065910
          72.30520248      71.42748070      70.25027084      68.76740074      66.95106697      64.78251076      62.27908134      59.46515846      56.39607716      53.07873726      49.54630470      45.56323338      45.24321365      46.37816715      47.04538250      47.49066639      47.78688240      47.94829082      47.98187828      47.90834427      47.76028919      47.56620502      47.35278606      47.13107872
          70.17485237      69.58961105      68.69158554      67.47670174      65.92067337      64.05141449      61.86081314      59.39575195      56.65763950      53.69110394      50.47438049      46.92859077      43.88920593      44.17807007      44.47347736      44.71229553      44.93727303      45.05569839      45.03948307      44.91447830      44.72458363      44.51723385      44.32456970      44.17744827
          67.93204308      67.70048141      67.10437584      66.13545609      64.85037422      63.24650192      61.34649467      59.15296841      56.73514271      54.09328651      51.22303963      48.12663555      44.96133327      42.49906731      41.59601974      41.39132977      41.73110580      41.83066082      41.71930790      41.50871754      41.22031212      40.96657467      40.76970291      40.68093014
          65.67301559      65.79194832      65.46696854      64.76879692      63.71186256      62.34484100      60.67958260      58.76424503      56.59904194      54.25539494      51.74836254      49.13352966      46.51929760      44.11048317      41.97022629      39.94789696      38.58854485      38.39452839      37.91806221      37.66696835      37.13375854      36.84992027      36.57053185      36.52027321
          63.50755692      63.90453720      63.82979202      63.34844589      62.50465202      61.33189201      59.88241959      58.16841888      56.26463318      54.16733265      51.94766235      49.64513874      47.35406685      45.16286182      43.08870316      41.08617496      39.13826370      37.37463665      35.53732204      34.12689495      32.63888931      32.51133347      31.50035954      31.27034187
          61.61311913      62.10312462      62.21956253      61.90636063      61.21866989      60.21289825      58.92282867      57.39978600      55.67553329      53.78980350      51.77372265      49.71289635      47.64375973      45.62906647      43.67712498      41.79391193      39.97074795      38.23576927      36.56133366      34.97505093      33.38684845      31.82707596      30.29757881      28.62361526
          60.48379135      60.32912636      60.64724350      60.45630836      59.88134003      58.98347187      57.82129192      56.42690849      54.83930779      53.10203075      51.25356960      49.35628319      47.45724297      45.58655262      43.76964283      41.99666500      40.27047157      38.59254360      36.95633030      35.36259937      33.78958321      32.23440838      30.68439293      29.09968948
          60.90295219      59.02777767      59.15428162      58.99373436      58.46045589      57.62023354      56.53173065      55.23611641      53.75035858      52.10468292      50.35914421      48.56702805      46.78090477      45.05447483      43.36123276      41.70742512      40.07006073      38.45370102      36.84416866      35.27072906      33.70968914      32.15632534      30.64240551      29.14446831
          61.03335190      59.23449516      57.78533077      57.52678585      56.94315720      56.10305309      55.05259323      53.83075905      52.40172386      50.78913689      49.08146763      47.31761837      45.63338470      44.02726364      42.48071861      40.94344330      39.41116905      37.85239697      36.22850609      34.69616318      33.17199993      31.55026054      30.11006832      28.69882011
          60.75355721      59.19417572      57.63888931      56.35402107      55.18813992      54.39590645      53.27518749      52.22820282      50.82694149      49.10794735      47.44524002      45.43072033      43.93294621      42.53569603      41.12159920      39.72208977      38.31583500      36.91845608      35.41666794      35.27762413      34.11153221      33.55170631      32.83964825      31.18509293
          60.71018219      59.72527313      58.46092606      57.16973591      55.57249451      54.02801037      52.22982025      50.81481266      49.41045761      48.02134991      46.86946964      45.51055241      44.17089081      42.71523571      41.17183495      39.58333206      39.47978306      39.66986084      39.52800083      39.26053524      38.69720078      38.05772877      37.24515533      36.01864433
          62.26705170      60.96126175      59.59769630      58.13944244      56.58027744      54.97276974      53.34059429      51.77410698      50.26805687      48.79631042      47.36197853      45.88680172      44.38056087      42.77900982      41.08458328      41.23819637      42.41658878      43.00885963      43.18691158      43.09281445      42.74619389      42.21848202      41.48812008      40.55419445
          63.36416054      61.90525627      60.39326096      58.82896900      57.21116066      55.55972767      53.90545654      52.28046608      50.67644691      49.08394337      47.48390293      45.86789608      44.22118568      42.53227901      41.77529812      44.08080101      45.49530792      46.26392460      46.61204624      46.65130806      46.44646931      46.03322124      45.44044304      44.67458153
          64.12212181      62.50834274      60.86832619      59.18050575      57.46696377      55.74326706      54.03089428      52.33774662      50.65345955      48.95315361      47.21362686      45.44588566      43.75000000      44.12049961      45.80723858      47.48342419      48.69956493      49.45196915      49.85201073      49.96862125      49.84611893      49.53438091      49.03851604      48.39883709