# Name file for MODPATH 7, generated by Flopy version 3.9.1.
MPBAS      ex01_mf2005_mp.mpbas
DIS        ex01_mf2005.dis
HEAD       .\ex01_mf2005.hds
BUDGET     .\ex01_mf2005.cbc
