# DIS package for MODFLOW-2005 generated by Flopy 3.9.1
         1         3        10         1         4         2
  0
CONSTANT    3.000000E+00                           #delr                          
CONSTANT    1.200000E+01                           #delc                          
CONSTANT    0.000000E+00                           #model_top                     
CONSTANT   -3.000000E+00                           #botm layer 1                  
   1102.000000             1  1.000000  SS
