# File generated by Flopy version 3.9.1 on 04/08/2025 at 11:24:36.
BEGIN options
  READASARRAYS
  PRINT_FLOWS
END options

BEGIN period  1
  recharge
    CONSTANT       0.00114155
END period  1

