# File generated by Flopy version 3.9.1 on 04/08/2025 at 11:24:36.
BEGIN options
END options

BEGIN griddata
  iconvert
    CONSTANT  0
  ss
    CONSTANT       0.00000000
  sy
    CONSTANT       0.00000000
END griddata

