# File generated by Flopy version 3.9.1 on 04/08/2025 at 11:24:36.
BEGIN options
  PRINT_FLOWS
END options

BEGIN sources
  CHD-1  AUX  CONCENTRATION
END sources

