# File generated by Flopy version 3.9.1 on 04/08/2025 at 11:24:36.
BEGIN options
  SORPTION  linear
END options

BEGIN griddata
  porosity
    CONSTANT       0.30000000
  bulk_density
    CONSTANT       1.70000000
  distcoef
    CONSTANT       0.17600000
END griddata

