# File generated by Flopy version 3.9.1 on 04/04/2025 at 14:44:42.
BEGIN options
END options

BEGIN griddata
  alh
    CONSTANT      10.00000000
  ath1
    CONSTANT       2.00000000
  atv
    CONSTANT       2.00000000
END griddata

