# File generated by Flopy version 3.9.1 on 04/08/2025 at 11:24:36.
BEGIN options
  TIME_UNITS  days
END options

BEGIN dimensions
  NPER  1
END dimensions

BEGIN perioddata
    1000.00000000  500       1.00000000
END perioddata

