# File generated by Flopy version 3.9.1 on 06/24/2025 at 12:23:22.
BEGIN options
  BUDGET  FILEOUT  ex-gwf-csub-p02.cbc
  HEAD  FILEOUT  ex-gwf-csub-p02.hds
END options

BEGIN period  1
  SAVE  HEAD  ALL
  SAVE  BUDGET  ALL
END period  1

