# File generated by Flopy version 3.9.1 on 04/11/2025 at 11:43:28.
BEGIN options
  SAVE_SPECIFIC_DISCHARGE
END options

BEGIN griddata
  icelltype
    CONSTANT  1
  k
    CONSTANT      30.00000000
  k33  LAYERED
    CONSTANT    1179.00000000
    CONSTANT      30.00000000
    CONSTANT      30.00000000
    CONSTANT      30.00000000
    CONSTANT      30.00000000
END griddata

