# File generated by Flopy version 3.9.1 on 03/01/2025 at 07:50:09.
BEGIN options
  auxiliary  concentration
  PRINT_INPUT
  PRINT_FLOWS
END options

BEGIN dimensions
  MAXBOUND  1
END dimensions

BEGIN period  1
  7 8 3 5.00000000E-01 1.00000000E+02
END period  1

