# File generated by Flopy version 3.9.1 on 03/01/2025 at 07:50:09.
BEGIN options
  SCHEME  tvd
END options

