# File generated by Flopy version 3.9.1 on 03/01/2025 at 07:50:09.
BEGIN options
  SAVE_FLOWS
END options

BEGIN packages
  dis6  gwt-p07-mf6.dis  dis
  ic6  gwt-p07-mf6.ic  ic
  adv6  gwt-p07-mf6.adv  adv
  dsp6  gwt-p07-mf6.dsp  dsp
  mst6  gwt-p07-mf6.mst  mst
  ssm6  gwt-p07-mf6.ssm  ssm
  oc6  gwt-p07-mf6.oc  oc
END packages

