# File generated by Flopy version 3.9.1 on 02/27/2025 at 15:37:28.
BEGIN options
END options

BEGIN griddata
  porosity
    CONSTANT       0.20000000
END griddata

