# File generated by Flopy version 3.9.1 on 03/01/2025 at 07:50:09.
BEGIN options
  BUDGET  FILEOUT  gwt-p07-mf6.cbc
  CONCENTRATION  FILEOUT  gwt-p07-mf6.ucn
  CONCENTRATION  PRINT_FORMAT  COLUMNS  10  WIDTH  15  DIGITS  6  general
END options

BEGIN period  1
  SAVE  concentration  last
  SAVE  budget  last
  PRINT  concentration  last
  PRINT  budget  last
END period  1

