# File generated by Flopy version 3.9.1 on 03/01/2025 at 07:50:09.
BEGIN options
  XT3D_OFF
END options

BEGIN griddata
  alh
    CONSTANT      10.00000000
  ath1
    CONSTANT       3.00000000
END griddata

