# File generated by Flopy version 3.9.1 on 06/21/2025 at 17:06:44.
BEGIN options
END options

BEGIN timing
  TDIS6  ex-gwf-maw-p02.tdis
END timing

BEGIN models
  gwf6  ex-gwf-maw-p02.nam  ex-gwf-maw-p02
END models

BEGIN exchanges
END exchanges

BEGIN solutiongroup  1
  ims6  ex-gwf-maw-p02.ims  ex-gwf-maw-p02
END solutiongroup  1

