# File generated by Flopy version 3.9.1 on 04/08/2025 at 08:54:48.
BEGIN options
  BUDGET  FILEOUT  06_ex-gwf-u1disv.cbc
  HEAD  FILEOUT  06_ex-gwf-u1disv.hds
END options

BEGIN period  1
  SAVE  HEAD  ALL
  SAVE  BUDGET  ALL
END period  1

