# File generated by Flopy version 3.8.2 on 01/20/2025 at 15:09:33.
BEGIN options
  BUDGET  FILEOUT  symp06.cbb
  HEAD  FILEOUT  symp06.hds
END options

BEGIN period  1
  SAVE  head  all
  SAVE  budget  all
  PRINT  head  last
END period  1

