# File generated by Flopy version 3.9.1 on 03/11/2025 at 13:08:42.
BEGIN options
  BUDGET  FILEOUT  gwt_p06-mf6.cbc
  CONCENTRATION  FILEOUT  gwt_p06-mf6.ucn
  CONCENTRATION  PRINT_FORMAT  COLUMNS  10  WIDTH  15  DIGITS  6  GENERAL
END options

BEGIN period  1
  SAVE  CONCENTRATION  LAST
  SAVE  BUDGET  LAST
  PRINT  CONCENTRATION  LAST
  PRINT  BUDGET  LAST
END period  1

