# File generated by Flopy version 3.9.1 on 02/21/2025 at 11:38:16.
BEGIN options
  SAVE_FLOWS
END options

BEGIN packages
  dis6  gwf-p03-mf6.dis  dis
  npf6  gwf-p03-mf6.npf  npf
  ic6  gwf-p03-mf6.ic  ic
  sto6  gwf-p03-mf6.sto  sto
  chd6  gwf-p03-mf6.chd  chd-1
  wel6  gwf-p03-mf6.wel  wel-1
  oc6  gwf-p03-mf6.oc  oc
END packages

