# File generated by Flopy version 3.9.1 on 02/21/2025 at 11:38:16.
BEGIN options
END options

BEGIN sources
  wel-1  aux  concentration
END sources

