# File generated by Flopy version 3.9.1 on 02/21/2025 at 11:38:16.
BEGIN options
END options

BEGIN timing
  TDIS6  ex-gwt-mt3dms-p03.tdis
END timing

BEGIN models
  gwf6  gwf-p03-mf6.nam  gwf-p03-mf6
  gwt6  gwt_p03-mf6.nam  gwt_p03-mf6
END models

BEGIN exchanges
  gwf6-gwt6  p03-mf6.gwfgwt  gwf-p03-mf6  gwt_p03-mf6
END exchanges

BEGIN solutiongroup  1
  ims6  gwf-p03-mf6.ims  gwf-p03-mf6
  ims6  gwt_p03-mf6.ims  gwt_p03-mf6
END solutiongroup  1

