# File generated by Flopy version 3.8.2 on 02/13/2025 at 14:54:35.
BEGIN options
  PRINT_INPUT
END options

BEGIN dimensions
  MAXBOUND  1
END dimensions

BEGIN period  1
  3 11 10 -150000
END period  1

