# File generated by Flopy version 3.9.1 on 05/16/2025 at 17:45:00.
BEGIN options
END options

BEGIN griddata
  strt
    CONSTANT       0.00000000
END griddata

