# File generated by Flopy version 3.9.1 on 05/16/2025 at 17:45:00.
BEGIN options
  BUDGET  FILEOUT  ex-gwf-whirl.cbc
  HEAD  FILEOUT  ex-gwf-whirl.hds
END options

BEGIN period  1
  SAVE  HEAD  ALL
  SAVE  BUDGET  ALL
END period  1

