# File generated by Flopy version 3.9.1 on 05/17/2025 at 10:07:56.
BEGIN Options
END Options

BEGIN GRIDDATA
  strt  LAYERED
    CONSTANT     -25.00000000
    CONSTANT     -25.00000000
    CONSTANT     -25.00000000
END GRIDDATA

