# File generated by Flopy version 3.9.1 on 02/15/2025 at 15:33:29.
BEGIN options
END options

BEGIN sources
  
END sources

