# Name file for MT3DMS, generated by Flopy version 3.9.1.
LIST              16  p06_d_mt.list
FTL               10  mt3d_link.ftl 
BTN               31  p06_d_mt.btn
ADV               32  p06_d_mt.adv
DSP               33  p06_d_mt.dsp
SSM               34  p06_d_mt.ssm
GCG               35  p06_d_mt.gcg
