# File generated by Flopy version 3.9.1 on 05/12/2025 at 14:40:11.
BEGIN options
END options

BEGIN dimensions
  MAXBOUND  1
END dimensions

BEGIN period  1
  1 26 26 -1
END period  1

