# File generated by Flopy version 3.9.1 on 05/17/2025 at 11:42:02.
BEGIN options
  SAVE_FLOWS
END options

BEGIN packages
  DIS6  ex-gwf-hani_c.dis  dis
  NPF6  ex-gwf-hani_c.npf  npf
  IC6  ex-gwf-hani_c.ic  ic
  CHD6  ex-gwf-hani_c.chd  chd
  WEL6  ex-gwf-hani_c.wel  wel
  OC6  ex-gwf-hani_c.oc  oc
END packages

