# File generated by Flopy version 3.9.1 on 05/17/2025 at 11:42:02.
BEGIN options
END options

BEGIN timing
  TDIS6  ex-gwf-hani_c.tdis
END timing

BEGIN models
  gwf6  ex-gwf-hani_c.nam  ex-gwf-hani_c
END models

BEGIN exchanges
END exchanges

BEGIN solutiongroup  1
  ims6  ex-gwf-hani_c.ims  ex-gwf-hani_c
END solutiongroup  1

