# File generated by Flopy version 3.9.1 on 04/29/2025 at 18:38:58.
BEGIN options
  HEAD  FILEOUT  08_p02.hds
END options

BEGIN period  1
  SAVE  HEAD  LAST
END period  1

