# File generated by Flopy version 3.8.2 on 01/20/2025 at 14:30:20.
BEGIN options
  COMPLEXITY  simple
END options

BEGIN linear
  LINEAR_ACCELERATION  bicgstab
END linear

