# File generated by Flopy version 3.8.2 on 01/20/2025 at 14:30:20.
BEGIN options
  TIME_UNITS  days
END options

BEGIN dimensions
  NPER  3
END dimensions

BEGIN perioddata
       1.00000000  1       1.00000000
       1.00000000  1       1.00000000
       1.00000000  1       1.00000000
END perioddata

