# File generated by Flopy version 3.9.1 on 07/08/2025 at 08:32:20.
BEGIN options
  READASARRAYS
END options

BEGIN period  1
  recharge
    CONSTANT  1.00000000E-06
END period  1

