# File generated by Flopy version 3.8.2 on 02/21/2025 at 07:37:26.
BEGIN Options
  PRINT_OPTION  summary
  COMPLEXITY  moderate
END Options

BEGIN Nonlinear
  OUTER_DVCLOSE  1.00000000E-06
  OUTER_MAXIMUM  100
  UNDER_RELAXATION  dbd
END Nonlinear

BEGIN LINEAR
  INNER_MAXIMUM  50
  INNER_DVCLOSE  1.00000000E-09
  INNER_RCLOSE  1.00000000E-05
  LINEAR_ACCELERATION  bicgstab
END LINEAR

