# File generated by Flopy version 3.8.2 on 02/21/2025 at 07:37:26.
BEGIN OPTIONS
  BUDGET  FILEOUT  test001e_UZF_3lay.cbc
  BUDGETCSV  FILEOUT  test001e_UZF_3lay.cbc.csv
  HEAD  FILEOUT  test001e_UZF_3lay.hds
END OPTIONS

BEGIN PERIOD  1
  SAVE  head  all
  SAVE  budget  all
  PRINT  head  all
  PRINT  budget  all
END PERIOD  1

