# File generated by Flopy version 3.9.1 on 04/17/2025 at 15:36:09.
BEGIN options
  CONTINUE
END options

BEGIN timing
  TDIS6  tutorial01_mf6.tdis
END timing

BEGIN models
  gwf6  tutorial01_mf6.nam  tutorial01_mf6
END models

BEGIN exchanges
END exchanges

BEGIN solutiongroup  1
  ims6  tutorial01_mf6.ims  tutorial01_mf6
END solutiongroup  1

