# File generated by Flopy version 3.9.1 on 04/17/2025 at 15:36:09.
BEGIN options
  COMPLEXITY  simple
END options

BEGIN linear
  LINEAR_ACCELERATION  bicgstab
END linear

