# File generated by Flopy version 3.8.2 on 02/21/2025 at 07:37:26.
BEGIN OPTIONS
END OPTIONS

BEGIN TIMING
  TDIS6  simulation.tdis
END TIMING

BEGIN MODELS
  gwf6  test001e_UZF_3lay.nam  gwf_1
END MODELS

BEGIN EXCHANGES
END EXCHANGES

BEGIN SOLUTIONGROUP  1
  MXITER  1
  ims6  test001e_UZF_3lay.ims  gwf_1
END SOLUTIONGROUP  1

