# File generated by Flopy version 3.8.2 on 02/21/2025 at 07:37:26.
BEGIN options
END options

BEGIN GRIDDATA
  iconvert  LAYERED
    CONSTANT  1
    CONSTANT  1
    CONSTANT  1
  ss  LAYERED
    CONSTANT  1.00000000E-05
    CONSTANT  1.00000000E-05
    CONSTANT  1.00000000E-05
  sy  LAYERED
    CONSTANT       0.20000000
    CONSTANT       0.20000000
    CONSTANT       0.20000000
END GRIDDATA

BEGIN PERIOD  1
  TRANSIENT
END PERIOD  1

BEGIN PERIOD  2
  TRANSIENT
END PERIOD  2

