# File generated by Flopy version 3.8.2 on 02/21/2025 at 07:37:26.
BEGIN Options
  SAVE_FLOWS
END Options

BEGIN GRIDDATA
  icelltype  LAYERED
    CONSTANT  1
    CONSTANT  1
    CONSTANT  1
  k  LAYERED
    CONSTANT      10.00000000
    CONSTANT      10.00000000
    CONSTANT      10.00000000
  k33  LAYERED
    CONSTANT      10.00000000
    CONSTANT      10.00000000
    CONSTANT      10.00000000
END GRIDDATA

