# File generated by Flopy version 3.9.1 on 05/20/2025 at 19:06:47.
BEGIN options
  BUDGET  FILEOUT  ex-gwf-maw-p02.cbc
  HEAD  FILEOUT  ex-gwf-maw-p02.hds
END options

BEGIN period  1
  SAVE  HEAD  LAST
  SAVE  BUDGET  LAST
  PRINT  BUDGET  LAST
END period  1

