# File generated by Flopy version 3.9.1 on 05/08/2025 at 10:17:06.
BEGIN options
  SAVE_SPECIFIC_DISCHARGE
END options

BEGIN griddata
  icelltype
    CONSTANT  0
  k
    CONSTANT       1.00000000
  k33
    CONSTANT  1.00000000E-16
END griddata

