# File generated by Flopy version 3.9.1 on 04/24/2025 at 07:30:29.
BEGIN options
  BUDGET  FILEOUT  sfr-p01b.cbc
  HEAD  FILEOUT  sfr-p01b.hds
END options

BEGIN period  1
  SAVE  HEAD  LAST
  SAVE  BUDGET  LAST
END period  1

