# WEL package for MODFLOW-2005 generated by Flopy 3.9.1
         2         0 
         2         0 # stress period 1
         1         4         7           0.001
         1        11         7         -0.0189
