# File generated by Flopy version 3.8.2 on 06/20/2025 at 14:07:56.
BEGIN options
  SAVE_SPECIFIC_DISCHARGE
END options

BEGIN griddata
  icelltype
    CONSTANT  0
  k
    CONSTANT       1.00000000
  k33
    CONSTANT  1.00000000E-16
END griddata

