# File generated by Flopy version 3.8.2 on 06/20/2025 at 14:07:56.
BEGIN options
  BUDGET  FILEOUT  ex-gwf-maw-p01.cbc
  HEAD  FILEOUT  ex-gwf-maw-p01.hds
END options

BEGIN period  1
  SAVE  HEAD  LAST
  SAVE  BUDGET  LAST
  PRINT  BUDGET  LAST
END period  1

