# File generated by Flopy version 3.9.1 on 05/20/2025 at 20:02:42.
BEGIN options
  TIME_UNITS  days
END options

BEGIN dimensions
  NPER  1
END dimensions

BEGIN perioddata
       2.31481500  50       1.20000000
END perioddata

