# File generated by Flopy version 3.8.2 on 06/20/2025 at 14:07:56.
BEGIN options
  PRINT_OPTION  summary
END options

BEGIN nonlinear
  OUTER_DVCLOSE  1.00000000E-09
  OUTER_MAXIMUM  500
END nonlinear

BEGIN linear
  INNER_MAXIMUM  100
  INNER_DVCLOSE  1.00000000E-09
  inner_rclose  1.00000000E-04
END linear

