# File generated by Flopy version 3.9.1 on 05/20/2025 at 20:02:42.
BEGIN options
  BUDGET  FILEOUT  ex-gwf-maw-p01.cbc
  HEAD  FILEOUT  ex-gwf-maw-p01.hds
END options

BEGIN period  1
  SAVE  HEAD  LAST
  SAVE  BUDGET  LAST
  PRINT  BUDGET  LAST
END period  1

