# File generated by Flopy version 3.9.1 on 05/08/2025 at 10:40:30.
BEGIN options
END options

BEGIN period  1
  PRINT  BUDGET  LAST
END period  1

