# File generated by Flopy version 3.8.2 on 01/26/2025 at 08:19:35.
BEGIN options
END options

BEGIN griddata
  porosity
    CONSTANT       0.20000000
END griddata

