# File generated by Flopy version 3.8.2 on 01/26/2025 at 08:19:33.
BEGIN options
  BOUNDNAMES
  OBS6  FILEIN  sgn.wel.obs
END options

BEGIN dimensions
  MAXBOUND  143
END dimensions

BEGIN period  1
  1 6231 0.00000000E+00 well-p1_ln
  1 6230 0.00000000E+00 well-p2_ln
  1 6237 0.00000000E+00 well-p3_ln
  1 6234 0.00000000E+00 well-p4_ln
  1 6666 0.00000000E+00 well-p5_ln
  1 7116 0.00000000E+00 well-p6_ln
  1 7576 0.00000000E+00 well-p7_ln
  1 7562 0.00000000E+00 well-p8_ln
  1 7102 0.00000000E+00 well-p9_ln
  1 7099 0.00000000E+00 well-p10_ln
  1 7082 0.00000000E+00 well-p11_ln
  1 11831 0.00000000E+00 well-r1_ln
  1 11844 0.00000000E+00 well-r2_ln
  1 12398 0.00000000E+00 well-r3_ln
  1 12410 0.00000000E+00 well-r4_ln
  1 12423 0.00000000E+00 well-r5_ln
  1 12970 0.00000000E+00 well-r6_ln
  1 12977 0.00000000E+00 well-r7_ln
  1 12990 0.00000000E+00 well-r8_ln
  1 13516 0.00000000E+00 well-r9_ln
  1 13523 0.00000000E+00 well-r10_ln
  1 6640 0.00000000E+00 well-p12_ln
  1 14786 0.00000000E+00 well-s
  1 15281 0.00000000E+00 well-p1_ex
  1 15282 0.00000000E+00 well-p2_ex
  1 15282 0.00000000E+00 well-p3_ex
  1 15283 0.00000000E+00 well-p4_ex
  1 16633 0.00000000E+00 well-r1_ex
  1 16636 0.00000000E+00 well-r2_ex
  1 16636 0.00000000E+00 well-r3_ex
  1 16635 0.00000000E+00 well-r4_ex
  1 16638 0.00000000E+00 well-r5_ex
  1 15732 0.00000000E+00 well-p1_sky
  1 15735 0.00000000E+00 well-p2_sky
  1 15736 0.00000000E+00 well-p3_sky
  1 15274 0.00000000E+00 well-p4_sky
  1 16617 0.00000000E+00 well-r1_sky
  1 17013 0.00000000E+00 well-r2_sky
  1 17012 0.00000000E+00 well-r3_sky
  1 17015 0.00000000E+00 well-r4_sky
  1 11694 0.00000000E+00 well-pc2_ams
  1 12519 0.00000000E+00 well-prof_p2
  1 12842 0.00000000E+00 well-pc3_ams
  1 14785 0.00000000E+00 well-p1_s1
  1 14785 0.00000000E+00 well-p2_s1
  1 15259 0.00000000E+00 well-p3_s1
  1 15259 0.00000000E+00 well-p4_s1
  1 16177 0.00000000E+00 well-r1_s1
  1 16177 0.00000000E+00 well-r2_s1
  1 16175 0.00000000E+00 well-r3_s1
  1 16175 0.00000000E+00 well-r4_s1
  1 3118 -5.00000000E-03 well-636
  1 2750 -5.00000000E-03 well-637
  1 2532 -2.00000000E-02 well-826
  1 2039 -2.14000000E-02 well-828
  1 3879 -3.00000000E-03 well-830
  1 2299 -5.00000000E-02 well-833
  1 586 0.00000000E+00 well-838
  1 4541 0.00000000E+00 well-878
  1 7028 -5.00000000E-03 well-2503
  1 7463 0.00000000E+00 well-2505
  1 2011 -1.00000000E-02 well-2550
  1 2257 -8.00000000E-03 well-2551
  1 2138 -1.20000000E-02 well-2559
  1 646 -2.25000000E-02 well-4740
  1 646 -2.25000000E-02 well-4741
  1 5261 0.00000000E+00 well-5196
  1 8232 -8.00000000E-03 well-21/5
  1 7746 -8.00000000E-03 well-21/6
  1 18907 0.00000000E+00 well-5352/1-2
  1 9317 -8.00000000E-03 well-21/14
  1 10446 -8.00000000E-03 well-21/16
  1 16612 0.00000000E+00 well-5257/1
  1 17013 0.00000000E+00 well-5257/2
  1 9226 0.00000000E+00 well-5426/p1-p2
  1 9231 0.00000000E+00 well-5426/r1-r2-r3
  1 1920 -8.00000000E-03 well-5600/p1
  1 2049 -8.00000000E-03 well-5600/p2
  1 2174 -8.00000000E-03 well-5600/p3
  1 2170 6.00000000E-03 well-5600/r1
  1 2170 6.00000000E-03 well-5600/r2
  1 2296 6.00000000E-03 well-5600/r3
  1 2296 6.00000000E-03 well-5600/r4
  1 2528 2.40000000E-02 well-5600/sca
  1 2288 -2.14000000E-02 well-5636/1
  1 1910 2.14000000E-02 well-5636/2
  1 2162 2.14000000E-02 well-5636/3
  1 2529 -6.00000000E-03 well-5686/p1
  1 2529 -6.00000000E-03 well-5686/p2
  1 2413 6.00000000E-03 well-5686/r1
  1 2529 6.00000000E-03 well-5686/r2
  1 2528 1.20000000E-02 well-5686/sca
  1 2645 0.00000000E+00 well-5700/p1
  1 2645 0.00000000E+00 well-5700/r1
  1 2529 8.00000000E-03 well-5700/sca
  1 6433 0.00000000E+00 well-5740/p1
  1 6026 0.00000000E+00 well-5740/p2
  1 6027 0.00000000E+00 well-5740/p3
  1 6028 0.00000000E+00 well-5740/p4
  1 6433 0.00000000E+00 well-5740/p5
  1 6434 0.00000000E+00 well-5740/p6
  1 8812 0.00000000E+00 well-5740/r1
  1 8812 0.00000000E+00 well-5740/r2
  1 9364 0.00000000E+00 well-5740/r3
  1 8813 0.00000000E+00 well-5740/r4
  1 9365 0.00000000E+00 well-5740/r5
  1 8816 0.00000000E+00 well-5740/r6
  1 8816 0.00000000E+00 well-5740/r7
  1 8815 0.00000000E+00 well-5740/r8
  1 14786 6.00000000E-03 well-5883/sca
  1 2247 0.00000000E+00 well-5884/2
  1 2247 0.00000000E+00 well-5884/3
  1 503 0.00000000E+00 well-80/1
  1 503 0.00000000E+00 well-80/2
  1 629 0.00000000E+00 well-80/3
  1 629 0.00000000E+00 well-80/4
  1 630 0.00000000E+00 well-80/5
  1 630 0.00000000E+00 well-80/6
  1 630 0.00000000E+00 well-80/7
  1 631 0.00000000E+00 well-80/8
  1 2380 0.00000000E+00 well-82/1
  1 2495 0.00000000E+00 well-82/2
  1 2380 0.00000000E+00 well-82/3
  1 2496 0.00000000E+00 well-82/4
  1 6605 0.00000000E+00 well-sc_bonf
  1 19990 0.00000000E+00 well-6
  1 19631 0.00000000E+00 well-77
  1 19869 0.00000000E+00 well-78
  1 19746 0.00000000E+00 well-81
  1 728 -3.50000000E-03 well-5814/1
  1 728 0.00000000E+00 well-5814/2
  1 13253 0.00000000E+00 well-p3_s2
  1 13253 0.00000000E+00 well-p2_s2
  1 13253 0.00000000E+00 well-p1_s2
  1 14294 0.00000000E+00 well-r1_s2
  1 14294 0.00000000E+00 well-r2_s2
  1 14294 0.00000000E+00 well-r3_s2
  1 14293 0.00000000E+00 well-r4_s2
  1 9250 -9.50000000E-03 well-19/16
  1 8672 -9.50000000E-03 well-19/18
  1 9256 -9.50000000E-03 well-19/19
  1 8690 -9.50000000E-03 well-19/20
  1 7192 -9.50000000E-03 well-19/21
END period  1

