# File generated by Flopy version 3.9.1 on 05/12/2025 at 09:55:51.
BEGIN options
  SAVE_FLOWS
END options

BEGIN packages
  DIS6  ex-gwf-hanir.dis  dis
  NPF6  ex-gwf-hanir.npf  npf
  IC6  ex-gwf-hanir.ic  ic
  CHD6  ex-gwf-hanir.chd  chd
  WEL6  ex-gwf-hanir.wel  wel
  OC6  ex-gwf-hanir.oc  oc
END packages

