# File generated by Flopy version 3.9.1 on 05/12/2025 at 09:55:51.
BEGIN options
  BUDGET  FILEOUT  ex-gwf-hanir.cbc
  HEAD  FILEOUT  ex-gwf-hanir.hds
END options

BEGIN period  1
  SAVE  HEAD  ALL
  SAVE  BUDGET  ALL
END period  1

