# File generated by Flopy version 3.9.1 on 05/12/2025 at 09:55:51.
BEGIN options
END options

BEGIN timing
  TDIS6  ex-gwf-hanir.tdis
END timing

BEGIN models
  gwf6  ex-gwf-hanir.nam  ex-gwf-hanir
END models

BEGIN exchanges
END exchanges

BEGIN solutiongroup  1
  ims6  ex-gwf-hanir.ims  ex-gwf-hanir
END solutiongroup  1

