# File generated by Flopy version 3.9.1 on 03/05/2025 at 07:08:02.
BEGIN options
  BUDGET  FILEOUT  gwf-inner.bud
  HEAD  FILEOUT  gwf-inner.hds
  HEAD  PRINT_FORMAT  COLUMNS  10  WIDTH  15  DIGITS  6  general
END options

BEGIN period  1
  SAVE  head  last
  SAVE  head  steps  1  250  375  500
  SAVE  budget  last
  PRINT  head  last
  PRINT  budget  first
  PRINT  budget  last
END period  1

