# File generated by Flopy version 3.9.1 on 03/05/2025 at 07:08:02.
BEGIN options
  BUDGET  FILEOUT  gwt-inner.cbc
  CONCENTRATION  FILEOUT  gwt-inner.ucn
  CONCENTRATION  PRINT_FORMAT  COLUMNS  10  WIDTH  15  DIGITS  6  general
END options

BEGIN period  1
  SAVE  concentration  last
  SAVE  concentration  steps  1  250  375  500
  SAVE  budget  last
  PRINT  concentration  last
  PRINT  budget  last
END period  1

