# File generated by Flopy version 3.8.2 on 01/26/2025 at 08:43:18.
BEGIN options
  BOUNDNAMES
END options

BEGIN dimensions
  MAXBOUND  51
END dimensions

BEGIN period  1
  1 7412     200.00000000  conc-1
  1 7413     200.00000000  conc-1
  1 7877     200.00000000  conc-1
  1 7883     200.00000000  conc-1
  1 7886     200.00000000  conc-1
  1 7887     200.00000000  conc-1
  1 7890     200.00000000  conc-1
  1 7891     200.00000000  conc-1
  1 7888     200.00000000  conc-1
  1 7889     200.00000000  conc-1
  1 7892     200.00000000  conc-1
  1 7893     200.00000000  conc-1
  1 7894     200.00000000  conc-1
  1 7895     200.00000000  conc-1
  1 7898     200.00000000  conc-1
  1 7899     200.00000000  conc-1
  1 7896     200.00000000  conc-1
  1 7897     200.00000000  conc-1
  1 7900     200.00000000  conc-1
  1 8414     200.00000000  conc-1
  1 7064     259.00000000  conc-2
  1 7065     259.00000000  conc-2
  1 7066     259.00000000  conc-2
  1 7071     259.00000000  conc-2
  1 7072     259.00000000  conc-2
  1 7075     259.00000000  conc-2
  1 7077     259.00000000  conc-2
  1 7083     259.00000000  conc-2
  1 7084     259.00000000  conc-2
  1 7902     200.00000000  conc-1
  1 7904     200.00000000  conc-1
  1 7910     200.00000000  conc-1
  1 7905     200.00000000  conc-1
  1 7903     200.00000000  conc-1
  1 7901     200.00000000  conc-1
  1 7424     200.00000000  conc-1
  1 7409     200.00000000  conc-1
  1 7875     200.00000000  conc-1
  1 7876     200.00000000  conc-1
  1 7882     200.00000000  conc-1
  1 7879     200.00000000  conc-1
  1 7884     200.00000000  conc-1
  1 7885     200.00000000  conc-1
  1 8413     200.00000000  conc-1
  1 8402     200.00000000  conc-1
  1 7881     200.00000000  conc-1
  1 7880     200.00000000  conc-1
  1 8401     200.00000000  conc-1
  1 8398     200.00000000  conc-1
  1 8403     200.00000000  conc-1
  1 8404     200.00000000  conc-1
END period  1

