# File generated by Flopy version 3.8.2 on 01/26/2025 at 08:43:18.
BEGIN options
END options

BEGIN griddata
  strt
    CONSTANT       0.00000000
END griddata

