# File generated by Flopy version 3.8.2 on 01/26/2025 at 08:43:15.
BEGIN options
  BOUNDNAMES
  OBS6  FILEIN  sgn.riv.obs
END options

BEGIN dimensions
  MAXBOUND  1620
END dimensions

BEGIN period  1
    OPEN/CLOSE  'sgn.riv_stress_period_data_1.txt'
END period  1

