# File generated by Flopy version 3.8.2 on 01/26/2025 at 08:43:12.
BEGIN options
  LENGTH_UNITS  meters
END options

BEGIN dimensions
  NLAY  1
  NCPL  22488
  NVERT  23770
END dimensions

BEGIN griddata
  top
    INTERNAL  FACTOR  1.0
       113.17749023     112.95309448     112.82367706     113.81641388     113.89986420     113.73541260     113.58529663     112.33863068     112.98705292     112.87075043     113.22854614     112.41183472     112.52619171     112.04480743     112.00542450     112.54753876     112.71735382     112.76519775     112.86130524     112.88484192
       113.02445984     113.01183319     112.95915985     112.92285919     112.26748657     112.31240845     111.81162262     111.70061493     111.67498779     111.65473175     111.64402771     111.66426849     111.58960724     111.61719513     110.70307922     110.46750641     109.92114258     114.83789062     111.58669281     110.36612701
       110.19659424     110.12001801     110.08786011     110.09187317     110.00178528     109.82427979     109.72833252     109.99532318     109.92133331     109.90258026     109.63471222     109.54837799     109.67291260     109.83979034     110.13896942     111.51633453     110.93206024     109.80580139     113.85849762     109.58386993
       109.68040466     110.26359558     110.81931305     111.22478485     112.15128326     110.50037384     109.96572113     109.34272003     109.20048523     109.43911743     109.32258606     109.69677734     109.42844391     109.38233948     109.49405670     109.46051025     110.77773285     110.06327820     111.23706818     110.13660431
       109.72644043     109.63140106     109.87398529     109.67868042     109.59661102     109.52843475     109.64603424     109.68745422     109.87529755     109.68912506     109.62512970     109.54505920     109.70086670     109.06802368     109.26531982     109.41754150     109.67178345     109.41782379     109.70256805     110.05393219
       110.04615784     110.30482483     110.06305695     109.58732605     109.37113190     109.06087494     109.02361298     108.70903778     108.55424500     109.01789093     108.66582489     108.38236237     108.23851776     108.15754700     108.23825073     108.19750214     108.06193542     108.11563110     108.16135406     108.16628265
       108.51976013     108.64288330     112.86772919     113.75123596     113.36373138     113.84557343     113.67471313     113.62448883     113.76105499     112.64441681     113.08890533     112.76814270     112.62390900     112.46112061     112.27534485     112.21858978     112.12133789     112.35424042     112.62730408     112.83129883
       112.82238007     112.98858643     113.01763916     113.03221893     113.03715515     112.97153473     112.50856781     112.41146088     111.80456543     111.72223663     111.58058929     111.55562592     111.48908234     111.63770294     111.55896759     111.41519165     110.89113617     110.93459320     110.89981079     114.93793488
       110.24505615     110.49478149     110.36381531     109.98785400     109.75858307     109.91063690     110.20063019     110.14413452     109.21547699     109.82954407     109.93922424     109.90866089     109.37915039     109.39761353     109.50833130     109.73441315     110.14263916     110.08574677     111.86508179     113.38272095
       113.74883270     108.55090332     109.26151276     113.56003571     113.70532990     114.23809052     113.53968048     111.21916199     110.16861725     111.64362335     109.80066681     109.56045532     109.46112061     109.45780945     109.33781433     109.54039764     109.18317413     109.25864410     109.16151428     109.18822479
       109.50238037     111.13735199     109.85143280     109.36761475     109.86762238     109.39357758     110.49218750     109.87245178     109.13412476     109.38584137     109.11585236     109.15357208     109.14812469     109.14921570     109.19939423     109.36640167     109.16024780     109.52452087     110.39364624     110.39993286
       110.32765961     110.20291901     110.01251984     109.45594025     109.56661224     110.10760498     109.38434601     109.10599518     108.21170044     108.11619568     108.12010193     108.03664398     108.03952026     108.14024353     108.05098724     107.91324615     107.96910095     108.04788208     108.21245575     108.65400696
       108.45948792     113.55124664     113.65458679     113.75989532     113.76332855     113.58054352     113.38104248     113.35800934     113.02468872     113.05722046     112.53987885     112.44559479     112.34326935     112.28600311     112.32721710     112.15361786     112.05086517     112.13856506     112.22586060     112.23744965
       112.39048004     112.39324188     112.61567688     112.74541473     112.86875916     112.78481293     112.14225769     111.76827240     111.75926971     111.59125519     111.66602325     111.63783264     111.73177338     111.78230286     111.29723358     109.98556519     110.69428253     113.23101044     113.32466125     110.32466888
       110.69416809     110.30032349     110.02440643     109.87358856     109.54148865     109.99928284     109.94213867     109.85388947     109.35368347     109.70443726     109.81585693     109.52194214     109.33589172     109.47649384     109.78575134     109.72718048     109.79212189     109.94709015     113.80408478     113.48365784
       110.09298706     108.65929413     113.77171326     112.97278595     111.78173065     111.47746277     110.52703857     109.38352203     109.10303497     109.35342407     109.07558441     109.90223694     109.05565643     109.03259277     109.04523468     109.02713013     109.11419678     109.53421783     109.13459778     109.39321136
       109.77704620     109.02178192     109.00988770     108.96676636     109.02574921     109.17946625     108.92659760     108.99644470     108.90923309     108.93956757     109.10039520     109.40513611     109.04909515     109.26044464     110.07637787     110.00999451     109.73235321     109.72550201     109.18494415     108.20578766
       108.00930023     108.62841034     109.53035736     109.69420624     109.52670288     109.42961884     109.03656006     108.66340637     108.23986816     108.09737396     107.82213593     107.75807953     107.82542419     108.06343842     108.19338226     108.52420044     108.03451538     113.24888611     113.43673706     113.56020355
       113.07359314     113.35705566     113.27064514     112.84558105     112.81086731     112.43362427     112.57622528     112.19789886     112.07558441     112.04885101     111.97309113     111.76210785     111.74889374     111.98258972     112.15656281     112.05263519     111.74753571     111.54879761     111.69737244     111.84717560
       112.14173889     112.29868317     111.91033173     111.71306610     111.72623444     111.75312042     111.69927216     111.70661926     111.45372009     111.31195068     110.29170227     109.56490326     110.60198975     115.07437134     111.57164001     110.18286133     110.57051849     109.73616791     109.75140381     109.83339691
       109.98841858     109.48725128     109.17713165     110.04549408     109.33135986     108.64249420     109.69343567     109.55531311     109.50962830     109.83657837     109.94543457     109.89311218     109.78589630     109.80637360     112.33525085     114.72566223     114.97753906     110.10721588     111.24427032     110.53774261
       111.75602722     109.46598053     108.93631744     108.89657593     108.92212677     108.85393524     108.83616638     108.94226074     108.75556183     108.75276184     108.70773315     108.67911530     108.90420532     109.11862183     108.70642090     108.63404846     108.77056885     108.54539490     108.50416565     108.48436737
       108.43404388     108.54815674     108.43831635     108.37873840     108.36449432     108.26998901     108.45204163     108.40670013     108.31959534     108.29687500     108.27173615     108.26298523     108.20541382     109.18822479     109.25587463     108.44986725     108.87198639     108.66559601     107.62699890     107.90634155
       108.18991852     108.20600891     108.19895935     108.11338043     109.02850342     108.83203888     109.14469910     109.38102722     109.63819885     109.07625580     108.70189667     108.51666260     108.94650269     108.86714935     108.44579315     107.70190430     113.23724365     113.18777466     113.29267883     113.06670380
       113.08010864     113.08293152     112.80177307     112.62049103     112.14425659     112.47409821     112.09754944     112.02002716     112.02175140     111.53277588     111.07797241     111.80329132     112.13906097     112.18231201     111.60302734     111.47989655     111.29356384     111.26622009     111.32395172     111.38620758
       111.53295898     111.36156464     111.30678558     111.33995056     111.30284882     111.32832336     111.49759674     111.01292419     110.89508820     110.19754028     109.37567139     111.84665680     115.53398132     110.33621979     110.00534821     110.09045410     110.03938293     109.77993011     110.03106689     110.55770874
       109.53399658     109.28437805     109.90375519     110.00158691     109.61734772     109.74569702     109.70992279     109.70554352     109.84321594     110.02528381     110.16960907     110.03752899     109.84194183     111.56792450     114.71854401     112.77394104     111.79933167     111.31694031     108.68550110     110.03810120
       108.03871918     108.36813354     108.21310425     108.16905212     108.16503906     108.22966003     108.23413086     108.24023438     108.18949890     108.14465332     108.27568054     108.22107697     108.26415253     108.25308990     108.17199707     108.14961243     108.16851807     108.15498352     107.99197388     108.21315765
       108.17187500     108.13535309     108.16680908     108.11701202     108.17243195     108.16947174     108.08377075     108.12409973     108.07624054     108.17600250     108.38729858     108.18152618     108.42094421     108.80551910     108.19959259     108.35079956     108.15335846     108.19759369     108.10484314     108.17626953
       108.39001465     108.75917053     108.77287292     107.51795197     107.91798401     108.02457428     108.16835022     108.19667816     108.27706146     108.51587677     108.51985931     108.55502319     108.28272247     108.27032471     108.59642029     109.03387451     109.42184448     109.88764191     109.76799011     108.98850250
       108.29524994     112.71286774     112.24533081     112.93266296     112.96328735     112.87787628     112.86940002     112.57276154     112.29110718     112.14946747     112.07682800     111.98537445     111.84916687     111.60560608     111.37613678     111.36024475     111.42509460     111.68093109     111.83297729     111.63464355
       111.34439850     111.18422699     111.18679810     111.16905212     111.12106323     111.39312744     110.60945892     110.93037415     110.68074036     110.39209747     110.45147705     110.15505981     109.86908722     109.64370728     109.69441223     109.58316040     113.79504395     113.52803040     109.55811310     109.95565796
       110.10999298     109.85063171     109.86839294     110.65381622     110.60076141     109.94715881     109.74642181     109.62200928     109.81545258     109.90173340     109.36975861     109.28643036     109.89261627     109.80332184     110.14326477     110.15024567     110.04319000     110.08430481     111.08246613     113.63659668
       112.02005768     111.58998871     107.88054657     107.80058289     108.09153748     108.04022980     108.11822510     108.04965973     107.78103638     108.16198730     108.13652802     108.16328430     108.14819336     108.07642365     108.22033691     108.09133911     108.16870117     108.33572388     108.08794403     108.15687561
       108.08258057     108.21895599     108.27821350     108.71598053     108.16593933     108.24643707     108.17341614     108.26697540     108.28729248     108.34242249     108.31349945     108.41285706     108.17695618     108.35508728     108.24126434     108.34360504     108.38758850     108.43181610     108.41005707     108.44090271
       108.47647858     108.81836700     108.51074219     108.66979218     109.01605988     108.57582092     108.94432068     108.63287354     107.96289825     108.14229584     108.00990295     107.97369385     107.89397430     107.88607788     107.81518555     108.47574615     108.74286652     108.61135864     108.05077362     108.13236237
       107.99352264     107.59834290     108.06719971     108.40506744     108.92712402     109.17610168     112.80918121     112.15606689     112.63182831     112.63693237     112.54126740     112.54239655     112.34053802     112.12470245     111.89453888     111.96591949     111.80056763     111.58718872     111.31970215     111.12857819
       111.05005646     111.01497650     111.01429749     110.61468506     110.86261749     111.09426117     111.14266205     111.10704803     111.04554749     110.47505188     110.37363434     110.32237244     110.44107056     110.39389038     110.27524567     110.40737915     110.08418274     109.39033508     108.27703857     108.42591095
       110.29011536     114.24119568     111.58868408     109.56320953     109.64694214     109.63343048     109.33905792     109.30200958     109.64000702     109.52740479     109.50566864     109.22352600     109.59346008     109.84160614     109.49510956     109.57598114     109.47554016     109.61917877     109.48242950     109.64700317
       109.93532562     110.37503052     110.45127869     110.32900238     112.34125519     111.93892670     110.00066376     107.19132996     107.53881836     108.21732330     108.10717010     108.02330780     107.98928070     107.35328674     107.86200714     107.88086700     107.74406433     107.70704651     108.21348572     108.32136536
       108.14296722     108.29242706     108.44370270     108.22422028     108.28927612     108.17864990     108.24064636     108.39202118     108.40173340     108.12467194     108.19062805     107.99037933     108.16769409     108.26974487     108.02550507     108.11354828     107.97335052     108.02749634     108.07884216     108.18440247
       108.63359833     107.70741272     107.89546967     107.90510559     107.90042877     107.91436005     107.76638794     107.58011627     107.97841644     108.20795441     108.22914886     108.06784821     107.93306732     107.84050751     107.70124054     107.57437897     107.55641937     107.69596100     107.73674011     112.77687073
       112.84564972     112.64044952     112.59602356     112.51094818     112.20503235     112.10282898     111.95917511     111.59815216     111.85230255     111.80667114     111.53975677     111.15339661     110.90529633     110.81483459     110.75022125     110.70889282     110.59918213     110.84592438     110.32968140     110.26254272
       110.26418304     110.69908905     110.56816101     110.39039612     110.39974213     110.41711426     110.33622742     110.33561707     110.33977509     110.23618317     109.91249847     110.10109711     115.01651764     114.22565460     114.81369019     109.82507324     109.38549042     109.42179871     109.20677948     108.80039215
       108.68524170     109.34799957     109.32184601     109.31508636     109.62515259     109.71057892     109.54630280     109.37959290     109.71438599     109.92014313     109.61852264     109.85760498     109.51923370     109.62455750     109.72335052     110.10662079     109.98191833     111.19665527     111.30359650     108.34149170
       107.46829224     107.39743042     107.66429138     107.73910522     107.64670563     107.66416931     107.38296509     107.65489197     107.70626831     107.66770172     107.68955231     107.91110992     107.99683380     107.93846893     107.96913910     107.89676666     107.88146210     107.95201874     107.85402679     107.94147491
       107.86459351     107.84944153     107.88471985     107.92324066     107.84868622     107.88323975     107.78623962     107.82965851     107.86801910     107.81064606     107.85298157     107.84011078     107.74330902     107.51998138     107.95892334     107.95317078     107.88283539     107.81162262     107.77352905     107.79383087
       107.38333130     107.30090332     107.36714172     107.46041870     107.52287292     107.47447205     107.83964539     107.91471863     107.76654816     107.59344482     107.53593445     107.46493530     112.84578705     112.54588318     112.43869019     112.39056396     112.16562653     111.98600006     112.04658508     111.93695068
       111.77835846     111.85596466     111.71385956     111.44817352     111.09449005     110.84562683     110.66095734     110.49475861     109.83576202     110.50653076     110.57793427     110.46760559     110.27691650     110.12664795     110.50704193     110.33944702     110.31127167     110.33188629     110.32404327     110.27500153
       110.29581451     110.19419861     110.06346130     109.93732452     113.22605896     117.19207764     114.30279541     113.75852203     109.15905762     109.17861938     109.05603790     109.03448486     109.04512787     108.93630981     109.02715302     108.48487854     108.96740723     109.39616394     109.32045746     109.39709473
       109.37493896     109.40364838     109.96773529     109.88066864     109.65387726     109.54521179     109.37389374     109.64440155     109.73583221     109.75433350     110.23096466     110.64992523     107.94397736     107.68095398     107.40391541     107.70325470     107.75192261     107.67801666     107.79486847     107.46325684
       107.76049042     107.82791138     107.83188629     107.82012939     107.82856750     107.80390167     107.80900574     107.85350037     107.83338928     107.86729431     107.81830597     107.77175903     107.84722137     107.81401825     107.71973419     107.74991608     107.77239990     107.77419281     107.86964417     107.85462952
       107.79547119     107.86049652     107.83049774     107.90648651     107.93320465     107.87561798     107.96716309     107.92073059     107.76564789     107.79733276     107.82695007     107.75852203     107.81900024     107.77231598     107.77677155     107.72578430     107.87839508     107.79780579     107.78452301     107.91886902
       107.87516022     107.81441498     107.66285706     107.49809265     107.63019562     107.30067444     107.47152710     107.20300293     107.08098602     107.36334229     107.83239746     107.65874481     107.32059479     107.30104065     107.36663055     107.51688385     107.64675903     112.20259857     111.81626892     112.22925568
       111.89147186     111.77357483     111.49597168     111.92566681     111.70562744     111.68763733     111.75469208     111.64169312     111.17984772     111.01409149     110.78875732     110.79111481     110.60087585     110.21656799     110.32592773     110.51114655     110.79300690     110.65142059     110.49977875     110.31507111
       110.38416290     110.34341431     110.34980011     110.30849457     110.21923828     110.18152618     110.08498383     110.02721405     109.94364166     114.75815582     115.82648468     113.95770264     112.11906433     108.95429230     109.07765961     108.93569946     108.86573792     108.90129852     108.91403198     108.69065094
       108.02146912     108.15175629     109.09598541     109.25665283     109.31771088     109.32450104     109.18403625     109.56723022     109.59866333     109.05238342     109.49272156     109.30779266     109.47209167     109.62014771     109.45880127     109.66584015     110.07427216     108.65121460     107.51560211     107.43328857
       107.80916595     107.41013336     107.78168488     107.97904205     108.01383972     108.06395721     108.10066223     107.86626434     107.79767609     107.99798584     107.79153442     107.76238251     107.96125793     107.83286285     108.00414276     107.91769409     107.79302979     107.75652313     107.80877686     107.73036957
       108.23514557     108.04021454     107.82965851     107.74086761     107.89263153     107.81123352     108.08971405     107.94824219     107.85750580     107.92675018     107.83072662     107.75473022     107.66996002     107.75067139     107.61267853     107.52371979     107.71477509     107.65090942     107.71199799     107.67076874
       107.74644470     107.65960693     107.68691254     107.57607269     107.73726654     107.65997314     107.94678497     107.69864655     107.76892090     107.79891968     107.23746490     107.58034515     107.10498047     107.48192596     107.77561188     107.24691010     106.89390564     106.90814972     107.02307129     107.18743896
       107.02539825     107.24694824     111.49380493     111.65383911     112.16597748     112.26490784     111.86817932     111.70391083     111.57185364     111.24253082     111.62800598     111.40868378     111.31000519     111.04808044     111.00919342     110.68517303     110.89665222     110.59399414     110.67656708     110.55950165
       110.52787781     110.23954773     110.34870911     110.44062042     110.25907135     110.33079529     110.30042267     110.35444641     110.31702423     110.25374603     110.22827911     109.97061157     109.95813751     110.19409180     116.03406525     114.93795776     114.14997101     110.90714264     108.81327057     108.81092072
       108.84377289     108.82527161     108.80702972     108.87577057     108.09608459     108.43887329     108.13033295     108.30330658     109.06981659     109.05973816     108.84205627     109.08242798     109.11985016     108.31138611     108.53399658     108.72184753     109.26839447     109.18758392     108.28858185     107.91624451
       109.31177521     109.84970093     108.63243103     107.84215546     107.98173523     108.37821198     108.26315308     107.98013306     108.26584625     108.07586670     108.29624939     108.13967133     107.80933380     107.71124268     107.75585938     107.67496490     107.64638519     107.81262970     107.71173859     107.86077118
       107.75251770     107.66694641     107.63896179     107.63468933     107.59989929     107.65509796     107.58917236     107.60334015     107.60130310     107.85269928     107.66045380     107.60732269     107.71362305     107.64255524     107.77217865     107.68170166     107.60883331     107.68243408     107.62767029     107.56072998
       107.61994171     107.57653046     107.56298065     107.59841919     107.58222961     107.54159546     107.51804352     107.52924347     107.54761505     107.39260864     107.92285919     107.79841614     107.55960083     107.70998383     107.75129700     107.69901276     107.60640717     107.55813599     107.36145020     107.44047546
       107.45709991     107.58389282     106.99962616     106.70264435     106.72049713     106.79933929     106.88056946     106.80533600     106.88639832     106.97418976     111.59905243     112.08934021     112.35744476     112.18984985     112.06962585     111.70302582     110.90312958     110.97676849     111.34597778     110.92050934
       110.95251465     110.84696960     110.89942169     110.65982819     110.91387939     110.79454803     110.74771881     110.55950928     110.31651306     109.96845245     109.99607086     110.21900940     110.29608154     110.26107788     110.27333832     110.31829834     110.32109833     110.29011536     110.24401093     109.95501709
       109.88938904     110.02901459     112.21063232     113.44801331     113.68045807     109.54853821     108.84278107     108.66191864     108.58892822     108.66812134     108.59627533     108.75170135     108.24297333     108.21874237     108.44173431     108.61713409     108.88361359     108.71329498     108.93730927     109.10216522
       109.04309845     108.56224060     108.93698883     108.89900970     108.56567383     107.74398804     107.48300934     108.12804413     109.07071686     110.25559235     108.46990204     108.16054535     108.12292480     108.05013275     107.90654755     107.89837646     107.64984894     107.78928375     107.68822479     107.73052979
       107.66470337     107.61717987     107.59735870     107.66592407     107.62998199     107.58637238     107.53737640     107.61775970     107.63057709     107.63162994     107.63925934     107.63645172     107.61305237     107.60611725     107.56000519     107.52872467     107.51697540     107.51532745     107.44766998     107.57182312
       107.30378723     107.63065338     107.60166168     107.59552002     107.61300659     107.58590698     107.49585724     107.59848022     107.56254578     107.22928619     107.19096375     107.39158630     107.18947601     107.54549408     107.57095337     107.55633545     107.43512726     107.50135040     107.36067200     107.33203125
       107.51660156     107.43051910     107.47300720     107.45261383     107.39524841     107.36872101     107.40895844     107.38392639     107.30835724     107.34966278     107.30982971     107.38052368     107.16469574     107.16787720     107.61434937     107.39517212     107.32595062     107.44181824     107.40744019     107.33695221
       107.47994995     107.48606873     107.43308258     107.43481445     107.45290375     107.43588257     107.42614746     107.45988464     107.37059784     107.47837830     107.43225098     107.45506287     107.45121002     107.46071625     107.49044037     107.57879639     107.47795868     107.66541290     107.72608185     107.50269318
       107.66437531     107.61646271     107.69775391     107.62068939     107.55054474     107.56240082     107.45393372     107.41300201     107.43752289     107.55691528     107.55104065     106.90385437     106.61771393     106.65908051     106.64424133     106.70323181     106.75255585     106.69028473     106.71723175     106.72408295
       111.95244598     112.09686279     112.17768860     111.43289185     110.93550873     111.30970764     111.23200989     111.28069305     109.98095703     110.29591370     110.42137146     109.86912537     110.78855133     110.79408264     110.69311523     110.66543579     110.57811737     110.46596527     110.38243866     110.24525452
       110.25798035     110.26103973     110.27502441     110.23146057     110.28072357     110.30017853     110.32847595     110.30905914     110.23992157     109.99029541     109.89386749     110.04541016     111.94814301     113.44490051     112.65673065     108.93206787     109.07754517     108.98834229     108.58692169     108.53468323
       108.42485046     108.71820831     108.49073792     108.07774353     108.65649414     108.96068573     108.78795624     108.76582336     108.82894135     108.88420105     108.83039093     108.72892761     108.68296051     108.87726593     108.29273224     107.82680511     108.22931671     108.51161194     108.54352570     110.46355438
       108.60813904     108.08235931     108.03406525     107.50105286     107.27456665     107.29151917     107.22360229     107.15380859     107.44565582     107.33214569     107.06282043     107.03790283     107.33293915     107.31098175     107.48722076     107.46691132     107.28570557     107.46856689     107.66271973     107.36727905
       107.49943542     107.26915741     107.32256317     107.54878235     107.44132233     107.53993225     107.39991760     107.43988037     107.56727600     107.39305878     107.53981781     107.70712280     107.68591309     107.60541534     107.65468597     107.55688477     107.62765503     107.66901398     107.67339325     107.55902100
       107.62351227     107.58655548     107.61813354     107.66123199     107.59356689     107.60688019     107.57479095     107.59325409     107.65807343     107.70713806     107.40054321     107.43096924     107.31281281     107.22780609     107.35808563     107.21879578     106.56549072     106.55460358     106.58749390     106.59329224
       106.61164093     106.58773041     106.60949707     106.58596039     106.59667969     112.02722931     111.93885040     111.63201141     111.23576355     111.68317413     110.56219482     111.56703949     111.60195160     111.13463593     111.01934814     110.69906616     110.55336761     110.66407776     110.77893066     110.31370544
       110.61299896     110.22776031     110.32557678     110.37002563     110.37336731     110.24610901     110.18424988     110.26023865     110.22356415     110.32907104     110.36095428     110.36529541     110.23650360     110.07090759     109.84245300     109.91748810     110.16558838     111.73736572     113.65945435     110.88074493
       108.62469482     109.26425934     108.72698975     108.99823761     108.37658691     108.48616028     107.97907257     107.90913391     108.05973816     107.81316376     105.97041321     106.39620972     108.71759033     108.72901917     108.71775055     108.61837006     108.64974976     108.68624115     108.29271698     107.67991638
       107.63558197     107.88107300     108.61817932     108.56479645     110.22100067     109.75939178     108.08010864     107.98437500     107.14101410     107.11168671     106.97640991     107.45936584     107.42764282     107.58237457     107.52449036     107.66740417     107.60573578     107.60506439     107.73780060     107.68517303
       107.78656769     107.71054840     107.67980957     107.80007172     107.71434021     107.80007172     107.63298035     107.51425934     107.55808258     107.54023743     107.52082825     107.57651520     107.57404327     107.54644775     107.57155609     107.54288483     107.50653076     107.57286072     107.62889862     107.55387878