# DIS package for MODFLOW-2005 generated by Flopy 3.9.1
         1         1        21         1         1         3
  0
CONSTANT    5.000000E-01                           #delr                          
CONSTANT    4.400000E+00                           #delc                          
CONSTANT    0.000000E+00                           #model_top                     
CONSTANT   -4.400000E+00                           #botm layer 1                  
   1800.000000             1  1.000000  SS
