# File generated by Flopy version 3.9.1 on 07/09/2025 at 13:18:24.
BEGIN options
END options

BEGIN griddata
  strt
    CONSTANT   10000.00000000
END griddata

