# File generated by Flopy version 3.9.1 on 07/09/2025 at 13:18:24.
BEGIN options
  PRINT_OPTION  all
END options

BEGIN linear
  INNER_MAXIMUM  100
END linear

