# Name file for MT3DMS, generated by Flopy version 3.9.1.
LIST              16  multiscale1_mt.list
FTL               10  mt3d_link.ftl 
BTN               31  multiscale1_mt.btn
ADV               32  multiscale1_mt.adv
DSP               33  multiscale1_mt.dsp
SSM               34  multiscale1_mt.ssm
GCG               35  multiscale1_mt.gcg
