# MPSIM package for MODPATH 7 generated by Flopy 3.9.1
ex01_mf6_mp_backward.mpnam
ex01_mf6_mp_backward.mplst
4 2 1 1 0 0
ex01_mf6_mp_backward.mpend
ex01_mf6_mp_backward.mppth
ex01_mf6_mp_backward.timeseries
0
1
0
2
1
100 0.01
1
1
1
PG1
1
0.0
INTERNAL
3
1 22
2 22 0
 1 1 1
 1050 20 40 60 80 100 120 140 160 180 200
 220 240 260 280 300 320 340 360 380 400
 420
