# File generated by Flopy version 3.9.1 on 05/15/2025 at 09:12:01.
BEGIN options
  TIME_UNITS  days
END options

BEGIN dimensions
  NPER  1
END dimensions

BEGIN perioddata
       1.00000000  1       1.00000000
END perioddata

