# File generated by Flopy version 3.9.1 on 06/11/2025 at 15:04:58.
BEGIN options
END options

BEGIN dimensions
  MAXBOUND  1
END dimensions

