# File generated by Flopy version 3.9.1 on 06/11/2025 at 15:04:58.
BEGIN options
  READASARRAYS
END options

BEGIN period  1
  recharge
    CONSTANT  1.60000000E-09
END period  1

