# File generated by Flopy version 3.9.1 on 06/20/2025 at 15:39:40.
BEGIN options
  READASARRAYS
END options

BEGIN period  1
  recharge
    CONSTANT  1.60000000E-09
END period  1

