# File generated by Flopy version 3.9.1 on 06/11/2025 at 15:04:58.
BEGIN options
END options

BEGIN timing
  TDIS6  Freyberg.tdis
END timing

BEGIN models
  gwf6  Freyberg.nam  Freyberg
END models

BEGIN exchanges
END exchanges

BEGIN solutiongroup  1
  ims6  Freyberg.ims  Freyberg
END solutiongroup  1

