# File generated by Flopy version 3.10.0.dev3 on 06/16/2025 at 08:45:41.
BEGIN options
END options

BEGIN dimensions
  NPER  1
END dimensions

BEGIN perioddata
       1.00000000  1       1.00000000
END perioddata

