# File generated by Flopy version 3.10.0.dev3 on 06/16/2025 at 08:45:42.
BEGIN options
END options

BEGIN dimensions
  MAXBOUND  169
END dimensions

BEGIN period  1
  1 24 24 3.61850929E+01 6.88963272E+02
  1 23 24 3.36988201E+01 8.90834726E+03
  1 23 23 3.51100683E+01 9.76388889E+03
  1 23 22 3.65502605E+01 8.07431506E+03
  1 24 22 3.85517063E+01 1.92810625E+03
  1 24 21 3.91115322E+01 1.02508528E+04
  1 24 20 4.02776241E+01 1.04561075E+04
  1 24 19 4.04166679E+01 1.06525981E+04
  1 24 18 4.19184561E+01 1.07616038E+04
  1 24 17 4.33158350E+01 1.09548187E+04
  1 24 16 4.47220898E+01 1.11355331E+04
  1 24 15 4.61215992E+01 1.13322590E+04
  1 24 14 4.75356960E+01 1.15568701E+04
  1 24 13 4.89329462E+01 1.17520404E+04
  1 24 12 5.04307203E+01 1.20785593E+04
  1 24 11 5.24452400E+01 5.54777730E+03
  1 25 11 5.18694696E+01 6.74385773E+03
  1 25 10 5.30213499E+01 1.24122556E+04
  1 25 9 5.44104576E+01 1.24960960E+04
  1 25 8 5.58148127E+01 1.26906959E+04
  1 25 7 5.72298203E+01 1.30011546E+04
  1 25 6 5.90280104E+01 1.32069761E+04
  1 25 5 6.05724945E+01 1.93980042E+03
  1 24 5 6.01881399E+01 1.19016178E+04
  1 24 4 6.13540211E+01 1.47162375E+04
  1 24 3 6.26388893E+01 6.53775127E+03
  1 23 3 6.27853308E+01 1.30822440E+04
  1 23 2 6.42344952E+01 5.09272294E+03
  1 22 2 6.40277777E+01 1.75396458E+04
  1 21 2 6.53291264E+01 4.67056764E+02
  1 21 1 6.54837914E+01 1.83952943E+04
  1 20 1 6.66131191E+01 3.43938758E+03
  1 24 4 6.13540211E+01 1.50751120E+03
  1 24 3 6.26388893E+01 1.48484869E+04
  1 24 2 6.41941757E+01 3.13005261E+03
  1 25 2 6.47252731E+01 1.09661284E+04
  1 25 1 6.57101822E+01 1.41390718E+04
  1 24 18 4.19184561E+01 4.13605589E+03
  1 24 17 4.33158350E+01 6.32653131E+03
  1 25 17 4.44797831E+01 5.77841259E+03
  1 25 16 4.45833321E+01 1.28094361E+04
  1 26 16 4.62381964E+01 3.73853106E+03
  1 26 15 4.60845833E+01 9.26117166E+03
  1 27 15 4.67752981E+01 9.25473132E+03
  1 27 14 4.75322790E+01 7.21208191E+03
  1 28 14 4.91204996E+01 7.20000245E+03
  1 28 13 4.87500000E+01 1.31916122E+04
  1 28 12 5.04458857E+01 4.40688506E+03
  1 29 12 5.13876495E+01 9.32922992E+03
  1 29 11 5.16414337E+01 1.38128024E+04
  1 29 10 5.34287281E+01 1.51419082E+03
  1 30 10 5.35265570E+01 1.24163647E+04
  1 30 9 5.44117346E+01 1.37159954E+04
  1 30 8 5.61991940E+01 4.21832485E+03
  1 31 8 5.72079639E+01 8.90535246E+03
  1 31 7 5.74485884E+01 1.39239648E+04
  1 31 6 5.88082714E+01 1.19443349E+04
  1 32 6 6.00176859E+01 2.82110396E+03
  1 32 5 6.00741796E+01 1.51095629E+04
  1 32 4 6.15561934E+01 9.42944891E+03
  1 33 4 6.22535458E+01 6.17396526E+03
  1 33 3 6.28495359E+01 1.54260463E+04
  1 33 2 6.47962837E+01 8.37664576E+03
  1 34 2 6.51443119E+01 6.77661230E+03
  1 34 1 6.56389351E+01 1.20255981E+04
  1 20 24 3.36236153E+01 9.99351418E+03
  1 19 24 3.62703419E+01 1.95796142E+02
  1 19 23 3.65003595E+01 1.00833810E+04
  1 19 22 3.75113335E+01 1.00507933E+04
  1 19 21 3.76388893E+01 1.02483329E+04
  1 19 20 3.91268950E+01 1.04856202E+04
  1 19 19 4.05373220E+01 1.06826654E+04
  1 19 18 4.23746367E+01 6.87334740E+03
  1 18 18 4.33945284E+01 4.45633879E+03
  1 18 17 4.35885448E+01 1.18293901E+04
  1 18 16 4.49478970E+01 1.16633806E+04
  1 17 16 4.63913298E+01 5.23538019E+02
  1 17 15 4.65960197E+01 1.24356129E+04
  1 17 14 4.74990673E+01 1.26492308E+04
  1 17 13 4.99613333E+01 1.99940297E+03
  1 16 13 4.88892059E+01 1.50353151E+04
  1 15 13 5.02432137E+01 2.09674654E+03
  1 15 12 5.05632334E+01 1.15191332E+04
  1 14 12 5.01388893E+01 1.33624689E+04
  1 13 12 5.22115917E+01 5.84296777E+02
  1 13 11 5.20882530E+01 1.30833480E+04
  1 12 11 5.22646160E+01 8.75474601E+03
  1 12 10 5.40916033E+01 8.05857100E+03
  1 11 10 5.38353901E+01 1.27059442E+04
  1 11 9 5.73917055E+01 1.87856907E+03
  1 10 9 5.57697086E+01 1.20263534E+04
END period  1

