# File generated by Flopy version 3.10.0.dev3 on 06/16/2025 at 08:45:42.
BEGIN options
  PRINT_INPUT
  SAVE_FLOWS
  NEWTON  UNDER_RELAXATION
END options

BEGIN packages
  DIS6  model_0.dis  dis
  IC6  model_0.ic  ic
  NPF6  model_0.npf  npf
  RCH6  model_0.rcha  rcha_0
  DRN6  model_0.drn  river
  DRN6  model_0_0.drn  gwd
  OC6  model_0.oc  oc
END packages

