# File generated by Flopy version 3.10.0.dev3 on 06/16/2025 at 08:45:42.
BEGIN options
END options

BEGIN griddata
  strt  LAYERED
    INTERNAL  FACTOR  1.0
          63.83684158      62.15637970      62.15637970      62.15637970      60.18175125      60.18175125      59.30734634      58.35778427      52.93722153      52.93722153      52.93722153      51.20437241      51.20437241      51.20437241      51.20437241      50.16458130      48.97345734      47.71946335      47.71946335      47.71946335      47.71946335      44.04087067      44.04087067      40.99962997
          63.83684158      62.15637970      62.15637970      60.18175125      60.18175125      60.18175125      59.30734634      58.35778427      52.93722153      52.93722153      52.93722153      51.20437241      51.20437241      51.20437241      50.16458130      48.97345734      47.71946335      47.71946335      47.71946335      47.71946335      47.71946335      44.04087067      40.99962997      40.99962997
          63.17837143      62.15637970      62.15637970      60.18175125      60.18175125      59.30734634      58.35778427      52.93722153      52.93722153      52.93722153      51.20437241      51.20437241      51.20437241      51.20437241      50.16458130      48.97345734      47.71946335      47.71946335      47.71946335      47.71946335      44.04087067      40.99962997      40.99962997      40.99962997
          62.15637970      62.15637970      61.36823273      60.18175125      60.18175125      59.30734634      58.35778427      52.93722153      52.93722153      52.93722153      51.20437241      51.20437241      51.20437241      50.16458130      48.97345734      47.71946335      47.71946335      47.71946335      47.71946335      44.04087067      44.04087067      40.99962997      40.99962997      40.99962997
          62.15637970      62.15637970      60.18175125      60.18175125      59.30734634      58.35778427      58.35778427      52.93722153      52.93722153      52.93722153      51.20437241      51.20437241      51.20437241      50.16458130      48.97345734      47.71946335      47.71946335      47.71946335      44.04087067      44.04087067      40.99962997      40.99962997      40.99962997      36.22415924
          62.15637970      61.36823273      60.18175125      60.18175125      59.30734634      58.35778427      55.99590683      52.93722153      52.93722153      52.93722153      51.20437241      51.20437241      50.16458130      48.97345734      47.71946335      47.71946335      47.71946335      47.71946335      44.04087067      40.99962997      40.99962997      40.99962997      36.22415924      36.22415924
          62.15637970      61.36823273      60.18175125      59.30734634      58.35778427      58.35778427      55.99590683      52.93722153      52.93722153      51.20437241      51.20437241      51.20437241      50.16458130      48.97345734      47.71946335      47.71946335      47.71946335      44.04087067      44.04087067      40.99962997      40.99962997      36.22415924      36.22415924      36.22415924
          61.36823273      60.18175125      60.18175125      59.30734634      58.35778427      55.99590683      53.80909348      52.93722153      52.93722153      51.20437241      51.20437241      50.16458130      48.97345734      47.71946335      47.71946335      47.71946335      44.04087067      44.04087067      40.99962997      40.99962997      40.99962997      36.22415924      36.22415924      36.22415924
          60.95019436      60.19043827      58.54735768      58.35778427      57.69561386      55.99590683      53.80909348      52.93722153      52.93722153      51.20437241      51.20437241      50.16458130      48.97345734      47.71946335      47.71946335      44.04087067      44.04087067      40.99962997      40.99962997      40.99962997      36.22415924      36.22415924      36.22415924      29.29211807
          60.26144123      59.52649879      58.71175480      57.86115646      56.74545593      55.04522574      53.80909348      52.93722153      52.93722153      51.20437241      50.16458130      48.97345734      47.71946335      47.71946335      47.71946335      44.04087067      44.04087067      40.99962997      40.99962997      36.22415924      36.22415924      36.22415924      29.29211807      29.29211807
          59.27424431      58.61298561      57.85740566      56.95673752      55.89554596      54.68847561      53.69708538      52.95456886      51.76757050      51.20437241      50.16458130      48.97345734      47.71946335      47.71946335      44.04087067      44.04087067      40.99962997      40.99962997      36.22415924      36.22415924      36.22415924      29.29211807      29.29211807      29.29211807
          57.96314716      57.38472176      56.71835136      55.95241833      55.08718109      54.15186882      53.23661423      52.32799721      51.36640263      50.38283253      49.35122585      47.71946335      47.71946335      45.84745407      44.04087067      40.99962997      40.99962997      39.85358047      36.22415924      36.22415924      34.95113373      29.29211807      29.29211807      23.74958992
          56.31635189      55.83115292      55.28196621      54.65177822      53.94098473      53.15474892      52.33567333      51.46964073      50.54849339      49.55514622      48.46643066      47.33285522      45.84745407      44.04087067      42.94796753      40.99962997      39.85358047      36.22415924      36.22415924      34.95113373      29.29211807      29.29211807      23.74958992      23.74958992
          54.30620480      53.93874741      53.50380325      53.00880527      52.43599510      51.78062916      51.05238628      50.25157547      49.36743641      48.38958454      47.30707264      46.10150814      44.65957355      43.22119331      40.99962997      39.85358047      36.22415924      36.22415924      34.95113373      29.29211807      29.29211807      29.29211807      23.74958992      20.11955261
          51.90301323      51.65494633      51.37667847      51.01406288      50.57977390      50.04560375      49.41970158      48.68115616      47.84204578      46.88991833      45.82005310      44.61515903      43.25593567      41.73305321      40.13496208      38.48136902      36.22415924      34.95113373      33.47934341      29.29211807      29.29211807      23.74958992      23.74958992      20.11955261
          49.06250095      48.97364140      48.85044193      48.67329884      48.38218403      47.97351360      47.44157410      46.77826405      45.98149776      45.06001949      44.00960636      42.82731724      41.50480556      40.04701614      38.44771481      36.58585835      34.70114350      33.47934341      29.29211807      29.29211807      23.74958992      23.74958992      20.11955261      20.11955261
          45.73058319      45.84876156      45.94029331      45.95959663      45.84778118      45.57468891      45.14195251      44.54154110      43.79121017      42.89503384      41.86286736      40.70293713      39.41920471      38.00846291      36.47838020      34.80799484      33.02515030      30.97898817      29.29211807      26.27565956      23.74958992      20.11955261      20.11955261      17.02588463
          41.82476902      42.24319935      42.61337948      42.90377903      42.98054409      42.86881924      42.52814865      41.99171925      41.26920891      40.38468933      39.35996342      38.21306610      36.95529270      35.59804726      34.13181210      32.56848049      30.85545015      28.98723173      27.08230829      23.74958992      22.36495781      20.11955261      20.11955261      17.02588463
          37.27438068      38.10573864      38.91616154      39.50619698      39.85114098      39.87630272      39.63575745      39.13436413      38.41272640      37.51450157      36.47138786      35.32077885      34.07917786      32.76067066      31.36960793      29.91215229      28.37567806      26.72147036      24.95547199      23.06769323      21.94156396      20.11955261      17.02588463      15.80568409
          32.67286205      33.38682652      34.80891609      35.90849113      36.48298264      36.66124153      36.48292255      35.98257351      35.22126007      34.25226021      33.15917873      31.97678995      30.73328876      29.44179344      28.11675453      26.78257179      25.41179895      24.03121710      22.55325651      21.03233290      19.45707035      17.80286360      17.02588463      15.80568409
          32.46407843      30.77742100      30.77048159      32.20527887      32.97417450      33.27066898      33.12042236      32.56153774      31.66676569      30.56286049      29.36242151      28.11968040      26.84851122      25.56481266      24.29083157      23.06110096      21.90917969      20.78440714      19.67520428      18.50045729      17.37361813      16.25615501      15.46910667      15.49600315
          32.63609982      31.06258535      29.41195154      28.19294214      29.39315033      29.77075481      29.60906219      28.91563988      27.76466799      26.34334850      24.98420095      23.65744019      22.34181309      21.03505659      19.76813459      18.62618208      17.73914576      16.96737766      16.16990328      15.38748503      14.62551856      13.94543433      13.49338889      13.19070244
          32.39349985      30.98392057      29.50845528      27.99663019      26.53583336      26.18265390      26.06692457      25.10880423      23.56617546      21.30992222      19.87457085      18.49294376      17.12354159      15.75659752      14.41175842      13.16516995      12.84250140      12.41345072      12.06873679      11.61143494      11.19534731      10.75852776      10.43094683      10.75050068
          33.99075127      32.56055641      31.19441032      29.83787680      28.47321415      27.11962366      25.75531387      24.40992975      23.10069704      22.43281794      22.14210081      20.95389366      19.57932949      18.09818792      16.44622469      14.29911613      11.58860660       8.84035802       7.59339857       7.19789803       7.02588534       6.82639050       6.32729137       5.76902580
          39.62238121      38.30687428      37.03498840      35.77200890      34.50712109      33.23220634      31.96314240      30.71136093      29.54435873      28.57931137      27.59047556      26.38387346      24.96425295      23.38037825      21.58696079      19.48971319      17.11537290      14.50322700      11.87671089       8.89151132       5.18232083       3.69474810       2.34967133       1.11111104
          44.46827698      43.34817600      42.19645214      41.03127193      39.84164429      38.63535023      37.41325092      36.19644833      35.00135517      33.83799744      32.63210583      31.29088593      29.79483128      28.13708973      26.30235243      24.27109432      22.05559015      19.70951748      17.25852323      14.78533936      12.46957850      10.81402421       9.89466739      10.44158077
          48.78383446      47.80231762      46.76499557      45.68609333      44.56610489      43.40765095      42.21839333      41.00352192      39.76525307      38.49526310      37.15006256      35.70612431      34.12793255      32.41088009      30.54630995      28.53805256      26.40979767      24.19599819      21.95569563      19.77719879      17.83882713      16.36410809      15.55065870      14.97865105
          52.63002491      51.76720238      50.82634163      49.81736469      48.75101566      47.63315678      46.46087551      45.23848724      43.96061993      42.61913586      41.19307423      39.65402222      38.00015736      36.21870136      34.31231022      32.29344988      30.18989706      28.03850651      25.89728642      23.84267378      21.99267149      20.51541901      19.64611816      19.87496758
          56.08862591      55.30374813      54.43764400      53.48764229      52.46653175      51.37449169      50.21378136      48.98167610      47.67317772      46.27818584      44.77744961      43.17063618      41.43501663      39.57959270      37.60802364      35.54376507      33.41727829      31.26277876      29.12688875      27.06400204      25.14249945      23.46176100      22.23530912      21.86936760
          59.17207241      58.45566559      57.64315319      56.74179077      55.75463390      54.68525696      53.53259182      52.29144382      50.95750237      49.51695251      47.95922470      46.27636909      44.45642471      42.50624752      40.44823456      38.30238056      36.10750294      33.89062309      31.70309210      29.57247972      27.48718596      25.54323673      23.36734200      22.38552666
          61.92219734      61.24983120      60.48096752      59.61566925      58.65967941      57.60809708      56.46208858      55.21447659      53.85812664      52.38235092      50.77198315      49.01424885      47.10430145      45.04393101      42.85454559      40.59382915      38.28128052      35.95888996      33.67709541      31.42755699      29.52317619      26.97802544      25.55526924      23.36734200
          64.34740829      63.71338749      62.97792530      62.14447021      61.21180153      60.17779732      59.03786659      57.78621006      56.41450214      54.90844250      53.25232887      51.42578220      49.41177273      47.19253349      44.83339214      42.39260197      39.99287987      37.39238071      35.23268890      33.31681442      30.98413849      26.97802544      26.97802544      23.36734200
          66.46748924      65.86270905      65.15720177      64.34814835      63.43777657      62.41947937      61.28904819      60.03736019      58.65562153      57.13030434      55.44351959      53.56564236      51.45339489      49.03517246      46.31639576      43.71851444      41.67535570      39.18238449      35.65993881      33.31681442      30.98413849      30.98413849      26.97802544      26.97802544
          68.28996468      67.71135139      67.02930260      66.24700165      65.35867119      64.35846901      63.23835182      61.99099541      60.60680866      59.07364750      57.37555027      55.47777557      53.30438423      50.92471886      48.12417878      45.19978333      41.66490173      39.18238449      35.65993881      35.65993881      33.31681442      30.98413849      30.98413849      26.97802544
          69.82624626      69.26744843      68.61246109      67.85324478      66.98927689      66.00930977      64.90564728      63.66632080      62.28526402      60.75212479      59.05661106      57.29185772      54.57300186      53.56578064      49.06252289      45.19978333      41.66490173      41.66490173      39.18238449      35.65993881      33.31681442      30.98413849      30.98413849      26.97802544
          71.07841873      70.54093742      69.90849686      69.17904091      68.34286690      67.39238548      66.30688858      65.07713127      63.70579529      62.16375446      60.54377651      54.20600724      57.64834976      53.56578064      53.56578064      45.19978333      45.19978333      41.66490173      39.18238449      35.65993881      35.65993881      33.31681442      30.98413849      30.98413849
          72.05021858      71.53288460      70.92677116      70.22952080      69.43185043      68.51831818      67.46360588      66.23169899      64.88695717      61.41332847      62.05468369      58.87570190      58.87570190      57.64834976      53.56578064      49.06252289      45.19978333      41.66490173      41.66490173      35.65993881      35.65993881      33.31681442      30.98413849      30.98413849
          72.74032974      72.24144554      71.66505814      71.00619316      70.24850655      69.40643501      68.40304756      67.24275208      66.30842590      64.83912659      62.05468369      62.05468369      58.87570190      58.87570190      53.56578064      53.56578064      45.19978333      41.66490173      41.66490173      39.18238449      35.65993881      35.65993881      33.31681442      30.98413849
          73.14554977      72.66257477      72.11458206      71.51127434      70.77047920      70.08436966      68.84355927      68.55593109      66.30842590      64.83912659      64.83912659      62.05468369      62.05468369      58.87570190      58.87570190      53.56578064      53.56578064      45.19978333      41.66490173      41.66490173      35.65993881      35.65993881      33.31681442      30.98413849
          73.30669403      72.73416901      72.30726624      71.66429901      71.51026917      70.19281006      70.19281006      68.55593109      68.55593109      66.30842590      64.83912659      62.05468369      62.05468369      58.87570190      58.87570190      58.87570190      53.56578064      45.19978333      41.66490173      41.66490173      35.65993881      35.65993881      35.65993881      33.31681442
          73.30669403      72.73416901      72.30726624      71.66429901      71.51026917      70.19281006      70.19281006      70.19281006      68.55593109      66.30842590      64.83912659      64.83912659      62.05468369      62.05468369      58.87570190      58.87570190      53.56578064      53.56578064      41.66490173      41.66490173      41.66490173      35.65993881      35.65993881      33.31681442
    INTERNAL  FACTOR  1.0
          63.83684158      62.15637970      62.15637970      62.15637970      60.18175125      60.18175125      59.30734634      58.35778427      52.93722153      52.93722153      52.93722153      51.20437241      51.20437241      51.20437241      51.20437241      50.16458130      48.97345734      47.71946335      47.71946335      47.71946335      47.71946335      44.04087067      44.04087067      40.99962997
          63.83684158      62.15637970      62.15637970      60.18175125      60.18175125      60.18175125      59.30734634      58.35778427      52.93722153      52.93722153      52.93722153      51.20437241      51.20437241      51.20437241      50.16458130      48.97345734      47.71946335      47.71946335      47.71946335      47.71946335      47.71946335      44.04087067      40.99962997      40.99962997
          63.17837143      62.15637970      62.15637970      60.18175125      60.18175125      59.30734634      58.35778427      52.93722153      52.93722153      52.93722153      51.20437241      51.20437241      51.20437241      51.20437241      50.16458130      48.97345734      47.71946335      47.71946335      47.71946335      47.71946335      44.04087067      40.99962997      40.99962997      40.99962997
          62.15637970      62.15637970      61.36823273      60.18175125      60.18175125      59.30734634      58.35778427      52.93722153      52.93722153      52.93722153      51.20437241      51.20437241      51.20437241      50.16458130      48.97345734      47.71946335      47.71946335      47.71946335      47.71946335      44.04087067      44.04087067      40.99962997      40.99962997      40.99962997
          62.15637970      62.15637970      60.18175125      60.18175125      59.30734634      58.35778427      58.35778427      52.93722153      52.93722153      52.93722153      51.20437241      51.20437241      51.20437241      50.16458130      48.97345734      47.71946335      47.71946335      47.71946335      44.04087067      44.04087067      40.99962997      40.99962997      40.99962997      36.22415924
          62.15637970      61.36823273      60.18175125      60.18175125      59.30734634      58.35778427      55.99590683      52.93722153      52.93722153      52.93722153      51.20437241      51.20437241      50.16458130      48.97345734      47.71946335      47.71946335      47.71946335      47.71946335      44.04087067      40.99962997      40.99962997      40.99962997      36.22415924      36.22415924
          62.15637970      61.36823273      60.18175125      59.30734634      58.35778427      58.35778427      55.99590683      52.93722153      52.93722153      51.20437241      51.20437241      51.20437241      50.16458130      48.97345734      47.71946335      47.71946335      47.71946335      44.04087067      44.04087067      40.99962997      40.99962997      36.22415924      36.22415924      36.22415924
          61.36823273      60.18175125      60.18175125      59.30734634      58.35778427      55.99590683      53.80909348      52.93722153      52.93722153      51.20437241      51.20437241      50.16458130      48.97345734      47.71946335      47.71946335      47.71946335      44.04087067      44.04087067      40.99962997      40.99962997      40.99962997      36.22415924      36.22415924      36.22415924
          60.95019436      60.19043827      58.54735768      58.35778427      57.69561386      55.99590683      53.80909348      52.93722153      52.93722153      51.20437241      51.20437241      50.16458130      48.97345734      47.71946335      47.71946335      44.04087067      44.04087067      40.99962997      40.99962997      40.99962997      36.22415924      36.22415924      36.22415924      29.29211807
          60.26144123      59.52649879      58.71175480      57.86115646      56.74545593      55.04522574      53.80909348      52.93722153      52.93722153      51.20437241      50.16458130      48.97345734      47.71946335      47.71946335      47.71946335      44.04087067      44.04087067      40.99962997      40.99962997      36.22415924      36.22415924      36.22415924      29.29211807      29.29211807
          59.27424431      58.61298561      57.85740566      56.95673752      55.89554596      54.68847561      53.69708538      52.95456886      51.76757050      51.20437241      50.16458130      48.97345734      47.71946335      47.71946335      44.04087067      44.04087067      40.99962997      40.99962997      36.22415924      36.22415924      36.22415924      29.29211807      29.29211807      29.29211807
          57.96314716      57.38472176      56.71835136      55.95241833      55.08718109      54.15186882      53.23661423      52.32799721      51.36640263      50.38283253      49.35122585      47.71946335      47.71946335      45.84745407      44.04087067      40.99962997      40.99962997      39.85358047      36.22415924      36.22415924      34.95113373      29.29211807      29.29211807      23.74958992
          56.31635189      55.83115292      55.28196621      54.65177822      53.94098473      53.15474892      52.33567333      51.46964073      50.54849339      49.55514622      48.46643066      47.33285522      45.84745407      44.04087067      42.94796753      40.99962997      39.85358047      36.22415924      36.22415924      34.95113373      29.29211807      29.29211807      23.74958992      23.74958992
          54.30620480      53.93874741      53.50380325      53.00880527      52.43599510      51.78062916      51.05238628      50.25157547      49.36743641      48.38958454      47.30707264      46.10150814      44.65957355      43.22119331      40.99962997      39.85358047      36.22415924      36.22415924      34.95113373      29.29211807      29.29211807      29.29211807      23.74958992      20.11955261
          51.90301323      51.65494633      51.37667847      51.01406288      50.57977390      50.04560375      49.41970158      48.68115616      47.84204578      46.88991833      45.82005310      44.61515903      43.25593567      41.73305321      40.13496208      38.48136902      36.22415924      34.95113373      33.47934341      29.29211807      29.29211807      23.74958992      23.74958992      20.11955261
          49.06250095      48.97364140      48.85044193      48.67329884      48.38218403      47.97351360      47.44157410      46.77826405      45.98149776      45.06001949      44.00960636      42.82731724      41.50480556      40.04701614      38.44771481      36.58585835      34.70114350      33.47934341      29.29211807      29.29211807      23.74958992      23.74958992      20.11955261      20.11955261
          45.73058319      45.84876156      45.94029331      45.95959663      45.84778118      45.57468891      45.14195251      44.54154110      43.79121017      42.89503384      41.86286736      40.70293713      39.41920471      38.00846291      36.47838020      34.80799484      33.02515030      30.97898817      29.29211807      26.27565956      23.74958992      20.11955261      20.11955261      17.02588463
          41.82476902      42.24319935      42.61337948      42.90377903      42.98054409      42.86881924      42.52814865      41.99171925      41.26920891      40.38468933      39.35996342      38.21306610      36.95529270      35.59804726      34.13181210      32.56848049      30.85545015      28.98723173      27.08230829      23.74958992      22.36495781      20.11955261      20.11955261      17.02588463
          37.27438068      38.10573864      38.91616154      39.50619698      39.85114098      39.87630272      39.63575745      39.13436413      38.41272640      37.51450157      36.47138786      35.32077885      34.07917786      32.76067066      31.36960793      29.91215229      28.37567806      26.72147036      24.95547199      23.06769323      21.94156396      20.11955261      17.02588463      15.80568409
          32.67286205      33.38682652      34.80891609      35.90849113      36.48298264      36.66124153      36.48292255      35.98257351      35.22126007      34.25226021      33.15917873      31.97678995      30.73328876      29.44179344      28.11675453      26.78257179      25.41179895      24.03121710      22.55325651      21.03233290      19.45707035      17.80286360      17.02588463      15.80568409
          32.46407843      30.77742100      30.77048159      32.20527887      32.97417450      33.27066898      33.12042236      32.56153774      31.66676569      30.56286049      29.36242151      28.11968040      26.84851122      25.56481266      24.29083157      23.06110096      21.90917969      20.78440714      19.67520428      18.50045729      17.37361813      16.25615501      15.46910667      15.49600315
          32.63609982      31.06258535      29.41195154      28.19294214      29.39315033      29.77075481      29.60906219      28.91563988      27.76466799      26.34334850      24.98420095      23.65744019      22.34181309      21.03505659      19.76813459      18.62618208      17.73914576      16.96737766      16.16990328      15.38748503      14.62551856      13.94543433      13.49338889      13.19070244
          32.39349985      30.98392057      29.50845528      27.99663019      26.53583336      26.18265390      26.06692457      25.10880423      23.56617546      21.30992222      19.87457085      18.49294376      17.12354159      15.75659752      14.41175842      13.16516995      12.84250140      12.41345072      12.06873679      11.61143494      11.19534731      10.75852776      10.43094683      10.75050068
          33.99075127      32.56055641      31.19441032      29.83787680      28.47321415      27.11962366      25.75531387      24.40992975      23.10069704      22.43281794      22.14210081      20.95389366      19.57932949      18.09818792      16.44622469      14.29911613      11.58860660       8.84035802       7.59339857       7.19789803       7.02588534       6.82639050       6.32729137       5.76902580
          39.62238121      38.30687428      37.03498840      35.77200890      34.50712109      33.23220634      31.96314240      30.71136093      29.54435873      28.57931137      27.59047556      26.38387346      24.96425295      23.38037825      21.58696079      19.48971319      17.11537290      14.50322700      11.87671089       8.89151132       5.18232083       3.69474810       2.34967133       1.11111104
          44.46827698      43.34817600      42.19645214      41.03127193      39.84164429      38.63535023      37.41325092      36.19644833      35.00135517      33.83799744      32.63210583      31.29088593      29.79483128      28.13708973      26.30235243      24.27109432      22.05559015      19.70951748      17.25852323      14.78533936      12.46957850      10.81402421       9.89466739      10.44158077
          48.78383446      47.80231762      46.76499557      45.68609333      44.56610489      43.40765095      42.21839333      41.00352192      39.76525307      38.49526310      37.15006256      35.70612431      34.12793255      32.41088009      30.54630995      28.53805256      26.40979767      24.19599819      21.95569563      19.77719879      17.83882713      16.36410809      15.55065870      14.97865105
          52.63002491      51.76720238      50.82634163      49.81736469      48.75101566      47.63315678      46.46087551      45.23848724      43.96061993      42.61913586      41.19307423      39.65402222      38.00015736      36.21870136      34.31231022      32.29344988      30.18989706      28.03850651      25.89728642      23.84267378      21.99267149      20.51541901      19.64611816      19.87496758
          56.08862591      55.30374813      54.43764400      53.48764229      52.46653175      51.37449169      50.21378136      48.98167610      47.67317772      46.27818584      44.77744961      43.17063618      41.43501663      39.57959270      37.60802364      35.54376507      33.41727829      31.26277876      29.12688875      27.06400204      25.14249945      23.46176100      22.23530912      21.86936760
          59.17207241      58.45566559      57.64315319      56.74179077      55.75463390      54.68525696      53.53259182      52.29144382      50.95750237      49.51695251      47.95922470      46.27636909      44.45642471      42.50624752      40.44823456      38.30238056      36.10750294      33.89062309      31.70309210      29.57247972      27.48718596      25.54323673      23.36734200      22.38552666
          61.92219734      61.24983120      60.48096752      59.61566925      58.65967941      57.60809708      56.46208858      55.21447659      53.85812664      52.38235092      50.77198315      49.01424885      47.10430145      45.04393101      42.85454559      40.59382915      38.28128052      35.95888996      33.67709541      31.42755699      29.52317619      26.97802544      25.55526924      23.36734200