# File generated by Flopy version 3.9.1 on 02/20/2025 at 14:30:32.
BEGIN options
  auxiliary  CONCENTRATION
END options

BEGIN dimensions
  MAXBOUND  1
END dimensions

BEGIN period  1
  1 1 1 1.00000000E-01 1.00000000E+00
END period  1

BEGIN period  2
  1 1 1 1.00000000E-01 0.00000000E+00
END period  2

