# File generated by Flopy version 3.8.2 on 02/21/2025 at 07:37:26.
BEGIN Options
END Options

BEGIN GRIDDATA
  strt  LAYERED
    CONSTANT     -25.00000000
    CONSTANT     -25.00000000
    CONSTANT     -25.00000000
END GRIDDATA

