# File generated by Flopy version 3.9.1 on 05/26/2025 at 15:48:19.
BEGIN options
  ALTERNATIVE_CELL_AVERAGING  amt-lmk
END options

BEGIN griddata
  icelltype  LAYERED
    CONSTANT  1
    CONSTANT  1
    CONSTANT  1
    CONSTANT  0
    CONSTANT  0
    CONSTANT  0
  k
    CONSTANT       1.00000000
  k33
    CONSTANT       1.00000000
END griddata

