# File generated by Flopy version 3.9.1 on 06/21/2025 at 17:14:04.
BEGIN options
  BUDGET  FILEOUT  gwf-lgr-parent.bud
  HEAD  FILEOUT  gwf-lgr-parent.hds
  HEAD  PRINT_FORMAT  COLUMNS  10  WIDTH  15  DIGITS  6  GENERAL
END options

BEGIN period  1
  SAVE  HEAD  LAST
  SAVE  BUDGET  LAST
  PRINT  HEAD  LAST
  PRINT  BUDGET  LAST
END period  1

