# File generated by Flopy version 3.9.1 on 02/17/2025 at 08:26:36.
BEGIN options
  PRINT_OPTION  summary
END options

BEGIN nonlinear
  OUTER_DVCLOSE  1.00000000E-08
END nonlinear

BEGIN linear
  INNER_DVCLOSE  1.00000000E-08
END linear

