# File generated by Flopy version 3.9.1 on 03/12/2025 at 13:53:28.
BEGIN options
END options

BEGIN griddata
  strt
    CONSTANT       0.00000000
END griddata

