# File generated by Flopy version 3.9.1 on 03/12/2025 at 13:53:28.
BEGIN options
  XT3D_OFF
END options

BEGIN griddata
  alh
    CONSTANT     100.00000000
  ath1
    CONSTANT     100.00000000
END griddata

