## BTN for MT3DMS, generated by Flopy.
##
         1         1       101         2         1         1
S   CM  KG  
T T T T T 
 0
         0       0.2                           -1 #delr
         0       4.4                           -1 #delc
         0         0                           -1 #htop
        31         1         (101E15.6)        -1 #dz layer 1
   4.400000E+00   4.400000E+00   4.400000E+00   4.400000E+00   4.400000E+00   4.400000E+00   4.400000E+00   4.400000E+00   4.400000E+00   4.400000E+00   4.400000E+00   4.400000E+00   4.400000E+00   4.400000E+00   4.400000E+00   4.400000E+00   4.400000E+00   4.400000E+00   4.400000E+00   4.400000E+00   4.400000E+00   4.400000E+00   4.400000E+00   4.400000E+00   4.400000E+00   4.400000E+00   4.400000E+00   4.400000E+00   4.400000E+00   4.400000E+00   4.400000E+00   4.400000E+00   4.400000E+00   4.400000E+00   4.400000E+00   4.400000E+00   4.400000E+00   4.400000E+00   4.400000E+00   4.400000E+00   4.400000E+00   4.400000E+00   4.400000E+00   4.400000E+00   4.400000E+00   4.400000E+00   4.400000E+00   4.400000E+00   4.400000E+00   4.400000E+00   4.400000E+00   4.400000E+00   4.400000E+00   4.400000E+00   4.400000E+00   4.400000E+00   4.400000E+00   4.400000E+00   4.400000E+00   4.400000E+00   4.400000E+00   4.400000E+00   4.400000E+00   4.400000E+00   4.400000E+00   4.400000E+00   4.400000E+00   4.400000E+00   4.400000E+00   4.400000E+00   4.400000E+00   4.400000E+00   4.400000E+00   4.400000E+00   4.400000E+00   4.400000E+00   4.400000E+00   4.400000E+00   4.400000E+00   4.400000E+00   4.400000E+00   4.400000E+00   4.400000E+00   4.400000E+00   4.400000E+00   4.400000E+00   4.400000E+00   4.400000E+00   4.400000E+00   4.400000E+00   4.400000E+00   4.400000E+00   4.400000E+00   4.400000E+00   4.400000E+00   4.400000E+00   4.400000E+00   4.400000E+00   4.400000E+00   4.400000E+00   4.400000E+00
         0       0.3                           -1 #prsity layer 1
        31         1           (101I10)        -1 #icbund layer 1
         1         1         1         1         1         1         1         1         1         1         1         1         1         1         1         1         1         1         1         1         1         1         1         1         1         1         1         1         1         1         1         1         1         1         1         1         1         1         1         1         1         1         1         1         1         1         1         1         1         1         1         1         1         1         1         1         1         1         1         1         1         1         1         1         1         1         1         1         1         1         1         1         1         1         1         1         1         1         1         1         1         1         1         1         1         1         1         1         1         1         1         1         1         1         1         1         1         1         1         1         1
        31         1         (101E15.6)        -1 #sconc1 layer 1
   0.000000E+00   0.000000E+00   0.000000E+00   0.000000E+00   0.000000E+00   0.000000E+00   0.000000E+00   0.000000E+00   0.000000E+00   0.000000E+00   0.000000E+00   0.000000E+00   0.000000E+00   0.000000E+00   0.000000E+00   0.000000E+00   0.000000E+00   0.000000E+00   0.000000E+00   0.000000E+00   0.000000E+00   0.000000E+00   0.000000E+00   0.000000E+00   0.000000E+00   0.000000E+00   0.000000E+00   0.000000E+00   0.000000E+00   0.000000E+00   0.000000E+00   0.000000E+00   0.000000E+00   0.000000E+00   0.000000E+00   0.000000E+00   0.000000E+00   0.000000E+00   0.000000E+00   0.000000E+00   0.000000E+00   0.000000E+00   0.000000E+00   0.000000E+00   0.000000E+00   0.000000E+00   0.000000E+00   0.000000E+00   0.000000E+00   0.000000E+00   0.000000E+00   0.000000E+00   0.000000E+00   0.000000E+00   0.000000E+00   0.000000E+00   0.000000E+00   0.000000E+00   0.000000E+00   0.000000E+00   0.000000E+00   0.000000E+00   0.000000E+00   0.000000E+00   0.000000E+00   0.000000E+00   0.000000E+00   0.000000E+00   0.000000E+00   0.000000E+00   0.000000E+00   0.000000E+00   0.000000E+00   0.000000E+00   0.000000E+00   0.000000E+00   0.000000E+00   0.000000E+00   0.000000E+00   0.000000E+00   0.000000E+00   0.000000E+00   0.000000E+00   0.000000E+00   0.000000E+00   0.000000E+00   0.000000E+00   0.000000E+00   0.000000E+00   0.000000E+00   0.000000E+00   0.000000E+00   0.000000E+00   0.000000E+00   0.000000E+00   0.000000E+00   0.000000E+00   0.000000E+00   0.000000E+00   0.000000E+00   0.000000E+00
     1E+30  1.00E-02
         0         0         0         0         T
       100
0.0000E+007.2000E+011.4400E+022.1600E+022.8800E+023.6000E+024.3200E+025.0400E+02
5.7600E+026.4800E+027.2000E+027.9200E+028.6400E+029.3600E+021.0080E+031.0800E+03
1.1520E+031.2240E+031.2960E+031.3680E+031.4400E+031.5120E+031.5840E+031.6560E+03
1.7280E+031.8000E+031.8720E+031.9440E+032.0160E+032.0880E+032.1600E+032.2320E+03
2.3040E+032.3760E+032.4480E+032.5200E+032.5920E+032.6640E+032.7360E+032.8080E+03
2.8800E+032.9520E+033.0240E+033.0960E+033.1680E+033.2400E+033.3120E+033.3840E+03
3.4560E+033.5280E+033.6000E+033.6720E+033.7440E+033.8160E+033.8880E+033.9600E+03
4.0320E+034.1040E+034.1760E+034.2480E+034.3200E+034.3920E+034.4640E+034.5360E+03
4.6080E+034.6800E+034.7520E+034.8240E+034.8960E+034.9680E+035.0400E+035.1120E+03
5.1840E+035.2560E+035.3280E+035.4000E+035.4720E+035.5440E+035.6160E+035.6880E+03
5.7600E+035.8320E+035.9040E+035.9760E+036.0480E+036.1200E+036.1920E+036.2640E+03
6.3360E+036.4080E+036.4800E+036.5520E+036.6240E+036.6960E+036.7680E+036.8400E+03
6.9120E+036.9840E+037.0560E+037.1280E+03
         0         1
         T         1
      7200         1         1
         0     50000         1         0
         0         1         1
         0     50000         1         0
