# File generated by Flopy version 3.9.1 on 05/06/2025 at 14:50:32.
BEGIN options
END options

BEGIN griddata
  strt
    CONSTANT      10.00000000
END griddata

