# File generated by Flopy version 3.9.1 on 04/04/2025 at 16:18:34.
BEGIN options
  BUDGET  FILEOUT  gwf-p06-mf6.bud
  HEAD  FILEOUT  gwf-p06-mf6.hds
  HEAD  PRINT_FORMAT  COLUMNS  10  WIDTH  15  DIGITS  6  GENERAL
END options

BEGIN period  1
  SAVE  HEAD  ALL
  SAVE  BUDGET  ALL
  PRINT  HEAD  ALL
  PRINT  BUDGET  ALL
END period  1

