# LPF package for MODFLOW-2005 generated by Flopy 3.9.1
         0    -1E+30         0  
         0
         0
   1.000000E+00
         0
         0
INTERNAL               1 (120E15.6) -1 #hk layer 1                    
   4.323916E-01   4.368038E-01   4.223949E-01   3.927552E-01   3.540254E-01   3.093529E-01   2.752991E-01   2.598969E-01   2.525991E-01   2.484897E-01   2.540038E-01   2.613016E-01   2.522448E-01   2.330875E-01   2.207404E-01   2.134902E-01   2.053696E-01   2.012841E-01   2.030211E-01   2.053410E-01   2.093161E-01   2.155435E-01   2.127788E-01   2.001213E-01   1.962700E-01   2.096132E-01   2.286524E-01   2.433261E-01   2.550409E-01   2.605092E-01   2.580865E-01   2.588979E-01   2.652671E-01   2.648024E-01   2.569475E-01   2.505677E-01   2.411481E-01   2.278039E-01   2.290381E-01   2.564951E-01   2.953564E-01   3.189478E-01   3.153927E-01   2.858129E-01   2.471526E-01   2.252040E-01   2.265030E-01   2.384787E-01   2.546838E-01   2.801932E-01   3.033856E-01   3.001943E-01   2.763724E-01   2.518601E-01   2.295391E-01   2.103999E-01   1.991689E-01   1.905226E-01   1.773984E-01   1.656265E-01   1.595325E-01   1.526080E-01   1.447064E-01   1.456645E-01   1.561383E-01   1.638389E-01   1.618285E-01   1.544260E-01   1.462139E-01   1.442721E-01   1.569964E-01   1.807916E-01   1.984251E-01   2.030783E-01   2.015574E-01   1.932244E-01   1.799764E-01   1.743556E-01   1.794469E-01   1.832610E-01   1.773965E-01   1.641246E-01   1.467006E-01   1.329783E-01   1.332459E-01   1.468558E-01   1.602838E-01   1.649970E-01   1.644341E-01   1.565116E-01   1.384676E-01   1.190703E-01   1.052014E-01   9.634744E-02   9.314624E-02   9.624459E-02   9.988444E-02   9.844355E-02   9.603698E-02   9.660553E-02   9.684838E-02   9.583223E-02   9.740549E-02   9.981301E-02   9.690742E-02   8.926117E-02   8.129930E-02   7.532584E-02   7.498604E-02   8.370864E-02   9.721598E-02   1.046347E-01   1.044319E-01   1.032138E-01   1.023072E-01   1.021739E-01   1.065508E-01   1.147657E-01   1.216359E-01   1.273624E-01
   4.725414E-01   4.514499E-01   4.222111E-01   3.840403E-01   3.514826E-01   3.283417E-01   3.070587E-01   2.938612E-01   2.938850E-01   2.881928E-01   2.635586E-01   2.394882E-01   2.309143E-01   2.305190E-01   2.309343E-01   2.316771E-01   2.256202E-01   2.097285E-01   1.968471E-01   1.945539E-01   1.977309E-01   2.055363E-01   2.198138E-01   2.246288E-01   2.034135E-01   1.726681E-01   1.530756E-01   1.459044E-01   1.470082E-01   1.527622E-01   1.535146E-01   1.433207E-01   1.320574E-01   1.279318E-01   1.278823E-01   1.310822E-01   1.436207E-01   1.643494E-01   1.812097E-01   1.900979E-01   1.973442E-01   2.041820E-01   2.129826E-01   2.312742E-01   2.544409E-01   2.677880E-01   2.735754E-01   2.793389E-01   2.734934E-01   2.534952E-01   2.424862E-01   2.541209E-01   2.807589E-01   3.101519E-01   3.282474E-01   3.153946E-01   2.787142E-01   2.498440E-01   2.380311E-01   2.319304E-01   2.296295E-01   2.357131E-01   2.398034E-01   2.313752E-01   2.219108E-01   2.223994E-01   2.277582E-01   2.314428E-01   2.286753E-01   2.098446E-01   1.802792E-01   1.611495E-01   1.593096E-01   1.647046E-01   1.701377E-01   1.776546E-01   1.828296E-01   1.769451E-01   1.635447E-01   1.490643E-01   1.343059E-01   1.240425E-01   1.235168E-01   1.278271E-01   1.284176E-01   1.269224E-01   1.266719E-01   1.226225E-01   1.139591E-01   1.085993E-01   1.094679E-01   1.130363E-01   1.170399E-01   1.183446E-01   1.116459E-01   1.012930E-01   9.731978E-02   1.000282E-01   1.020253E-01   1.013434E-01   1.007777E-01   9.859592E-02   9.354690E-02   8.907594E-02   8.547294E-02   8.007497E-02   7.456911E-02   7.134562E-02   6.892677E-02   6.809785E-02   7.415446E-02   8.902956E-02   1.062185E-01   1.184532E-01   1.253977E-01   1.264472E-01   1.219940E-01   1.172494E-01   1.131049E-01   1.070575E-01
   6.266788E-01   6.053255E-01   5.988657E-01   5.854920E-01   5.356283E-01   4.651608E-01   3.937094E-01   3.227552E-01   2.687879E-01   2.476421E-01   2.471136E-01   2.408834E-01   2.228813E-01   2.044449E-01   1.911035E-01   1.872056E-01   1.966547E-01   2.092856E-01   2.082847E-01   1.968357E-01   1.857666E-01   1.733500E-01   1.609905E-01   1.590153E-01   1.683788E-01   1.771536E-01   1.774793E-01   1.700492E-01   1.547412E-01   1.373353E-01   1.278623E-01   1.268519E-01   1.292413E-01   1.380333E-01   1.593753E-01   1.854076E-01   1.992108E-01   2.007803E-01   2.002574E-01   2.023688E-01   2.141769E-01   2.408119E-01   2.703517E-01   2.888166E-01   3.053407E-01   3.270569E-01   3.415573E-01   3.499522E-01   3.689781E-01   3.906505E-01   3.921714E-01   3.803833E-01   3.741750E-01   3.777910E-01   3.978074E-01   4.366934E-01   4.612162E-01   4.392856E-01   4.000577E-01   3.757016E-01   3.588204E-01   3.427430E-01   3.375918E-01   3.405792E-01   3.381689E-01   3.314568E-01   3.214829E-01   2.968087E-01   2.624396E-01   2.352969E-01   2.131036E-01   1.877122E-01   1.674436E-01   1.596896E-01   1.566383E-01   1.498643E-01   1.418884E-01   1.353696E-01   1.303003E-01   1.305308E-01   1.364467E-01   1.386019E-01   1.332373E-01   1.299556E-01   1.327259E-01   1.355792E-01   1.374238E-01   1.424874E-01   1.484853E-01   1.519709E-01   1.564764E-01   1.617724E-01   1.614771E-01   1.571754E-01   1.530232E-01   1.435379E-01   1.281604E-01   1.185875E-01   1.199312E-01   1.251720E-01   1.273319E-01   1.258557E-01   1.202865E-01   1.129449E-01   1.105164E-01   1.130515E-01   1.128410E-01   1.086479E-01   1.061794E-01   1.048242E-01   1.015272E-01   1.004768E-01   1.055090E-01   1.126134E-01   1.171666E-01   1.191294E-01   1.168628E-01   1.105688E-01   1.071975E-01   1.092869E-01
   4.502004E-01   4.142762E-01   3.696485E-01   3.435515E-01   3.321843E-01   3.140880E-01   2.904823E-01   2.709364E-01   2.467993E-01   2.156016E-01   1.931034E-01   1.856695E-01   1.856266E-01   1.882113E-01   1.921006E-01   1.899798E-01   1.806535E-01   1.742280E-01   1.713110E-01   1.630209E-01   1.538003E-01   1.564621E-01   1.720643E-01   1.927654E-01   2.154578E-01   2.372902E-01   2.499001E-01   2.568380E-01   2.687137E-01   2.781352E-01   2.743639E-01   2.682718E-01   2.671680E-01   2.600731E-01   2.480069E-01   2.478688E-01   2.622463E-01   2.791675E-01   2.938393E-01   3.049417E-01   3.063950E-01   3.074197E-01   3.244266E-01   3.459866E-01   3.466952E-01   3.364175E-01   3.387831E-01   3.514150E-01   3.654354E-01   3.834584E-01   3.958313E-01   3.850469E-01   3.610289E-01   3.394441E-01   3.170916E-01   2.989800E-01   3.007685E-01   3.156450E-01   3.180078E-01   3.076921E-01   3.040722E-01   3.073616E-01   3.081844E-01   3.062607E-01   2.969582E-01   2.756934E-01   2.578036E-01   2.554342E-01   2.562342E-01   2.480145E-01   2.399577E-01   2.361064E-01   2.248869E-01   2.053496E-01   1.876570E-01   1.732309E-01   1.618838E-01   1.594048E-01   1.655474E-01   1.718557E-01   1.768422E-01   1.832191E-01   1.808078E-01   1.624209E-01   1.433522E-01   1.371219E-01   1.426751E-01   1.555698E-01   1.710063E-01   1.769784E-01   1.674636E-01   1.553621E-01   1.496252E-01   1.455092E-01   1.414884E-01   1.421475E-01   1.433893E-01   1.368610E-01   1.268976E-01   1.217207E-01   1.211921E-01   1.236025E-01   1.287052E-01   1.306603E-01   1.248701E-01   1.192551E-01   1.205141E-01   1.235339E-01   1.237920E-01   1.261881E-01   1.325260E-01   1.371677E-01   1.386447E-01   1.395285E-01   1.391609E-01   1.412285E-01   1.548707E-01   1.793840E-01   2.001060E-01   2.095132E-01
   3.128404E-01   3.522978E-01   3.840432E-01   3.933533E-01   4.014529E-01   4.170228E-01   4.108125E-01   3.736541E-01   3.324929E-01   2.984743E-01   2.691355E-01   2.498516E-01   2.399463E-01   2.282896E-01   2.149368E-01   2.083733E-01   2.045820E-01   1.977433E-01   1.978928E-01   2.131312E-01   2.329447E-01   2.458051E-01   2.568237E-01   2.688051E-01   2.763810E-01   2.827340E-01   2.896138E-01   2.875357E-01   2.815417E-01   2.896471E-01   3.049560E-01   2.988343E-01   2.698517E-01   2.392949E-01   2.154263E-01   2.029668E-01   2.109056E-01   2.388282E-01   2.739925E-01   3.082320E-01   3.361032E-01   3.401431E-01   3.229200E-01   3.155251E-01   3.267751E-01   3.343043E-01   3.281226E-01   3.221086E-01   3.229438E-01   3.332100E-01   3.609765E-01   3.954379E-01   4.049947E-01   3.878954E-01   3.653154E-01   3.343357E-01   2.929841E-01   2.631234E-01   2.553209E-01   2.580331E-01   2.618406E-01   2.658681E-01   2.617482E-01   2.451222E-01   2.291877E-01   2.208594E-01   2.146987E-01   2.153006E-01   2.335694E-01   2.595436E-01   2.658966E-01   2.495621E-01   2.287029E-01   2.128312E-01   2.078781E-01   2.163891E-01   2.241288E-01   2.135959E-01   1.920606E-01   1.722948E-01   1.540984E-01   1.402494E-01   1.382333E-01   1.451521E-01   1.485034E-01   1.438341E-01   1.363287E-01   1.293185E-01   1.274700E-01   1.362963E-01   1.513671E-01   1.608800E-01   1.655398E-01   1.734814E-01   1.804897E-01   1.806868E-01   1.815382E-01   1.885798E-01   1.974547E-01   2.066886E-01   2.156320E-01   2.145368E-01   2.028535E-01   1.963871E-01   2.005869E-01   2.067495E-01   2.142997E-01   2.292381E-01   2.415148E-01   2.366855E-01   2.238050E-01   2.182548E-01   2.253421E-01   2.509458E-01   2.957144E-01   3.323301E-01   3.322025E-01   3.153841E-01   3.081796E-01   3.083615E-01
   3.585928E-01   3.527359E-01   3.675496E-01   3.843470E-01   3.720732E-01   3.415163E-01   3.181430E-01   2.991400E-01   2.779161E-01   2.617101E-01   2.512210E-01   2.408405E-01   2.347055E-01   2.342217E-01   2.280296E-01   2.171739E-01   2.205804E-01   2.441375E-01   2.715154E-01   2.877291E-01   2.901109E-01   2.740296E-01   2.465412E-01   2.293486E-01   2.309933E-01   2.463536E-01   2.753981E-01   3.158460E-01   3.406345E-01   3.317701E-01   3.182354E-01   3.242971E-01   3.397955E-01   3.487560E-01   3.453438E-01   3.223143E-01   2.869043E-01   2.632282E-01   2.580160E-01   2.595426E-01   2.666433E-01   2.875948E-01   3.105767E-01   3.138327E-01   3.050055E-01   3.019390E-01   3.044922E-01   3.128109E-01   3.330691E-01   3.556405E-01   3.653249E-01   3.685695E-01   3.671001E-01   3.424715E-01   3.017009E-01   2.732849E-01   2.583465E-01   2.379759E-01   2.079723E-01   1.766051E-01   1.495748E-01   1.350554E-01   1.407732E-01   1.649103E-01   1.961633E-01   2.264430E-01   2.497325E-01   2.500925E-01   2.289210E-01   2.128712E-01   2.147873E-01   2.275963E-01   2.436375E-01   2.566741E-01   2.553895E-01   2.429547E-01   2.371940E-01   2.381368E-01   2.302886E-01   2.157644E-01   2.077781E-01   2.040925E-01   1.977994E-01   1.935120E-01   1.943977E-01   1.960948E-01   2.002374E-01   2.102275E-01   2.168196E-01   2.135731E-01   2.123369E-01   2.195547E-01   2.263764E-01   2.330046E-01   2.517229E-01   2.796322E-01   2.975772E-01   2.976429E-01   2.830559E-01   2.598569E-01   2.468498E-01   2.590522E-01   2.840378E-01   2.946735E-01   2.888214E-01   2.779923E-01   2.607111E-01   2.418405E-01   2.356188E-01   2.428242E-01   2.544780E-01   2.702288E-01   2.893566E-01   3.000647E-01   3.046702E-01   3.207191E-01   3.423011E-01   3.450486E-01   3.350252E-01   3.357785E-01
   4.451292E-01   4.202645E-01   3.728046E-01   3.381955E-01   3.356909E-01   3.548387E-01   3.857450E-01   4.205598E-01   4.288080E-01   3.902543E-01   3.323205E-01   2.815836E-01   2.454908E-01   2.347246E-01   2.554971E-01   2.886300E-01   3.007818E-01   2.913270E-01   2.805960E-01   2.751686E-01   2.788066E-01   2.947678E-01   3.095739E-01   3.095558E-01   3.065997E-01   3.104348E-01   3.112909E-01   3.114300E-01   3.282007E-01   3.564396E-01   3.699323E-01   3.647811E-01   3.535901E-01   3.363528E-01   3.172650E-01   3.067254E-01   2.980962E-01   2.822274E-01   2.711069E-01   2.720745E-01   2.691241E-01   2.551599E-01   2.483221E-01   2.586969E-01   2.779885E-01   2.968677E-01   3.039550E-01   2.821950E-01   2.409139E-01   2.089999E-01   1.945720E-01   1.918749E-01   2.035897E-01   2.334494E-01   2.643795E-01   2.723497E-01   2.628720E-01   2.514534E-01   2.415567E-01   2.371511E-01   2.389387E-01   2.353255E-01   2.245183E-01   2.233384E-01   2.368321E-01   2.493011E-01   2.525486E-01   2.541971E-01   2.525096E-01   2.421567E-01   2.317847E-01   2.275753E-01   2.258754E-01   2.306381E-01   2.496278E-01   2.741753E-01   2.910518E-01   3.085806E-01   3.321748E-01   3.398774E-01   3.210143E-01   2.959011E-01   2.760352E-01   2.602188E-01   2.517915E-01   2.479440E-01   2.379435E-01   2.281563E-01   2.362045E-01   2.611273E-01   2.853958E-01   3.045731E-01   3.235428E-01   3.320282E-01   3.254227E-01   3.187754E-01   3.164203E-01   3.111090E-01   3.071073E-01   3.061016E-01   2.945811E-01   2.754000E-01   2.702041E-01   2.796589E-01   2.817522E-01   2.703488E-01   2.590731E-01   2.538047E-01   2.578693E-01   2.783609E-01   3.073254E-01   3.230638E-01   3.266074E-01   3.331386E-01   3.365137E-01   3.310225E-01   3.344119E-01   3.530625E-01   3.652630E-01   3.581690E-01
   6.288530E-01   6.023504E-01   6.246513E-01   6.421649E-01   6.328148E-01   6.060007E-01   5.648614E-01   5.283410E-01   5.180433E-01   5.159234E-01   4.930739E-01   4.599686E-01   4.284585E-01   3.843812E-01   3.343395E-01   3.051255E-01   2.983810E-01   2.962506E-01   2.930526E-01   2.915965E-01   2.863120E-01   2.784390E-01   2.776666E-01   2.774695E-01   2.660300E-01   2.565980E-01   2.658300E-01   2.852673E-01   2.995552E-01   3.134842E-01   3.343614E-01   3.588214E-01   3.914590E-01   4.346116E-01   4.610485E-01   4.504185E-01   4.237282E-01   3.924076E-01   3.501332E-01   3.136118E-01   3.019561E-01   3.037236E-01   2.966734E-01   2.798389E-01   2.606083E-01   2.414186E-01   2.308324E-01   2.333637E-01   2.350350E-01   2.254707E-01   2.189300E-01   2.266868E-01   2.408891E-01   2.556151E-01   2.762409E-01   2.985743E-01   3.117404E-01   3.208325E-01   3.306282E-01   3.309263E-01   3.228457E-01   3.166964E-01   3.019761E-01   2.700060E-01   2.430633E-01   2.395349E-01   2.529876E-01   2.719164E-01   2.934183E-01   3.089930E-01   3.083415E-01   2.998600E-01   2.894804E-01   2.674699E-01   2.404586E-01   2.301667E-01   2.401158E-01   2.577313E-01   2.795503E-01   3.089263E-01   3.334491E-01   3.409983E-01   3.408297E-01   3.380422E-01   3.297168E-01   3.276083E-01   3.392755E-01   3.466152E-01   3.414668E-01   3.489437E-01   3.817947E-01   4.159133E-01   4.242263E-01   4.021615E-01   3.542892E-01   3.032218E-01   2.777447E-01   2.804760E-01   2.948430E-01   3.148184E-01   3.429220E-01   3.610670E-01   3.532387E-01   3.425963E-01   3.520035E-01   3.747950E-01   3.985883E-01   4.156314E-01   4.072232E-01   3.707933E-01   3.354957E-01   3.130747E-01   2.907604E-01   2.720268E-01   2.742972E-01   2.947612E-01   3.122642E-01   3.178250E-01   3.139032E-01   2.995324E-01
   5.992095E-01   6.061311E-01   6.074758E-01   6.152574E-01   6.052921E-01   5.728325E-01   5.308228E-01   4.795916E-01   4.346506E-01   4.205216E-01   4.241834E-01   4.067337E-01   3.673058E-01   3.316806E-01   3.012675E-01   2.709821E-01   2.499849E-01   2.417071E-01   2.400510E-01   2.475155E-01   2.690727E-01   2.927327E-01   3.056388E-01   3.173288E-01   3.310444E-01   3.299330E-01   3.178259E-01   3.200630E-01   3.423782E-01   3.729598E-01   4.073108E-01   4.391066E-01   4.538755E-01   4.630504E-01   4.880131E-01   5.065390E-01   4.840381E-01   4.422665E-01   4.129096E-01   3.923143E-01   3.766444E-01   3.732874E-01   3.713580E-01   3.523121E-01   3.231362E-01   2.958297E-01   2.701698E-01   2.551647E-01   2.632567E-01   2.819684E-01   2.810893E-01   2.589521E-01   2.363502E-01   2.205614E-01   2.139788E-01   2.222708E-01   2.414738E-01   2.604578E-01   2.805017E-01   3.033475E-01   3.099015E-01   2.925917E-01   2.746924E-01   2.673766E-01   2.614359E-01   2.567494E-01   2.606330E-01   2.678337E-01   2.723745E-01   2.808989E-01   2.934774E-01   3.015713E-01   3.127756E-01   3.363699E-01   3.511560E-01   3.369023E-01   3.183259E-01   3.242399E-01   3.593223E-01   4.236349E-01   5.100713E-01   5.725573E-01   5.681155E-01   5.254240E-01   4.784488E-01   4.288442E-01   3.908581E-01   3.805852E-01   3.788672E-01   3.570957E-01   3.253227E-01   3.060407E-01   3.031894E-01   3.184925E-01   3.526502E-01   3.826756E-01   3.823356E-01   3.656230E-01   3.498827E-01   3.260960E-01   2.981305E-01   2.888052E-01   3.028208E-01   3.250123E-01   3.439144E-01   3.496998E-01   3.279074E-01   2.898309E-01   2.625282E-01   2.493802E-01   2.412319E-01   2.421395E-01   2.556409E-01   2.650348E-01   2.583846E-01   2.518734E-01   2.601569E-01   2.818483E-01   3.131309E-01   3.419982E-01
   4.557793E-01   4.801992E-01   4.834305E-01   4.768069E-01   4.705967E-01   4.555440E-01   4.379562E-01   4.292784E-01   4.119925E-01   3.748254E-01   3.437601E-01   3.335690E-01   3.282093E-01   3.194573E-01   3.196039E-01   3.307635E-01   3.439410E-01   3.590870E-01   3.718598E-01   3.682134E-01   3.610727E-01   3.804909E-01   4.237349E-01   4.568782E-01   4.680883E-01   4.672635E-01   4.501728E-01   4.248062E-01   4.173428E-01   4.304546E-01   4.451483E-01   4.542269E-01   4.505661E-01   4.161742E-01   3.694790E-01   3.524873E-01   3.709237E-01   3.944799E-01   4.008444E-01   3.909886E-01   3.662249E-01   3.389574E-01   3.318682E-01   3.474314E-01   3.719941E-01   4.071155E-01   4.567687E-01   4.880141E-01   4.717957E-01   4.375114E-01   4.127944E-01   3.927780E-01   3.787424E-01   3.786196E-01   3.808500E-01   3.726865E-01   3.612298E-01   3.463076E-01   3.203258E-01   3.012837E-01   3.116919E-01   3.409669E-01   3.563967E-01   3.488046E-01   3.304492E-01   3.101338E-01   3.028837E-01   3.220172E-01   3.566548E-01   3.847698E-01   4.073660E-01   4.288013E-01   4.354011E-01   4.367943E-01   4.660664E-01   5.204775E-01   5.540028E-01   5.419319E-01   4.978842E-01   4.411770E-01   4.021691E-01   4.041404E-01   4.334068E-01   4.574363E-01   4.727338E-01   4.844047E-01   4.659379E-01   4.105259E-01   3.560053E-01   3.241209E-01   3.139356E-01   3.298797E-01   3.728846E-01   4.195960E-01   4.479196E-01   4.647446E-01   4.665655E-01   4.395618E-01   4.083041E-01   4.020929E-01   4.082993E-01   4.018977E-01   3.869459E-01   3.753007E-01   3.706066E-01   3.838794E-01   4.152752E-01   4.268795E-01   3.911181E-01   3.378813E-01   2.925536E-01   2.532514E-01   2.245041E-01   2.139312E-01   2.138940E-01   2.125150E-01   2.108265E-01   2.122207E-01   2.156778E-01   2.293810E-01
   4.695034E-01   4.112535E-01   3.757540E-01   3.581976E-01   3.621298E-01   3.785805E-01   3.748693E-01   3.453657E-01   3.215886E-01   3.143032E-01   3.113709E-01   3.124795E-01   3.228352E-01   3.311292E-01   3.309111E-01   3.374775E-01   3.598727E-01   3.948761E-01   4.485291E-01   5.153158E-01   5.435975E-01   5.087304E-01   4.687054E-01   4.676045E-01   5.017269E-01   5.615806E-01   6.344938E-01   6.743569E-01   6.516588E-01   6.012542E-01   5.480812E-01   4.912978E-01   4.534832E-01   4.544926E-01   4.698063E-01   4.629456E-01   4.400018E-01   4.179722E-01   3.940456E-01   3.751702E-01   3.766654E-01   3.957141E-01   4.261500E-01   4.784116E-01   5.435880E-01   5.735248E-01   5.616063E-01   5.590807E-01   5.820321E-01   6.039817E-01   6.109548E-01   5.968391E-01   5.494782E-01   4.920273E-01   4.605686E-01   4.510995E-01   4.433521E-01   4.408123E-01   4.420027E-01   4.190703E-01   3.737207E-01   3.448324E-01   3.480228E-01   3.718323E-01   4.056747E-01   4.365486E-01   4.413170E-01   4.272614E-01   4.295965E-01   4.531822E-01   4.766498E-01   5.062886E-01   5.633739E-01   6.281074E-01   6.624374E-01   6.676571E-01   6.502541E-01   6.058797E-01   5.600244E-01   5.354102E-01   5.171672E-01   4.984832E-01   5.005546E-01   5.184462E-01   5.156615E-01   4.944319E-01   4.904607E-01   5.066381E-01   5.218794E-01   5.289239E-01   5.205032E-01   4.907016E-01   4.693787E-01   4.873208E-01   5.290581E-01   5.619234E-01   5.918089E-01   6.276636E-01   6.412706E-01   6.255265E-01   6.095643E-01   5.941059E-01   5.629977E-01   5.266144E-01   4.915492E-01   4.495824E-01   4.172523E-01   4.158257E-01   4.241034E-01   4.026234E-01   3.577071E-01   3.159222E-01   2.807284E-01   2.527772E-01   2.377578E-01   2.311619E-01   2.274896E-01   2.356483E-01   2.622358E-01   2.943393E-01
   4.552717E-01   4.259967E-01   3.879859E-01   3.517445E-01   3.222295E-01   3.203791E-01   3.614041E-01   4.210826E-01   4.492472E-01   4.368943E-01   4.059327E-01   3.682781E-01   3.397498E-01   3.315053E-01   3.315244E-01   3.275322E-01   3.280179E-01   3.348052E-01   3.345766E-01   3.347309E-01   3.578804E-01   3.995806E-01   4.325507E-01   4.510547E-01   4.627609E-01   4.606095E-01   4.487538E-01   4.428407E-01   4.371667E-01   4.270595E-01   4.356753E-01   4.702101E-01   4.912730E-01   4.720414E-01   4.398609E-01   4.159047E-01   4.006329E-01   4.028471E-01   4.248615E-01   4.454549E-01   4.547507E-01   4.681187E-01   4.825067E-01   4.837419E-01   4.916273E-01   5.255545E-01   5.557294E-01   5.497696E-01   5.296800E-01   5.209689E-01   5.244316E-01   5.445899E-01   5.750286E-01   5.784294E-01   5.487735E-01   5.304323E-01   5.363511E-01   5.384482E-01   5.333246E-01   5.397006E-01   5.456851E-01   5.330065E-01   5.158825E-01   5.032954E-01   4.860590E-01   4.740966E-01   4.806696E-01   4.888493E-01   4.891055E-01   5.106398E-01   5.647976E-01   6.096986E-01   6.140394E-01   5.991514E-01   5.816483E-01   5.679280E-01   5.767647E-01   6.043065E-01   6.172411E-01   6.172783E-01   6.348556E-01   6.545015E-01   6.413459E-01   6.166993E-01   6.115947E-01   6.159784E-01   6.263417E-01   6.646392E-01   7.259881E-01   7.778964E-01   8.105665E-01   8.106484E-01   7.489529E-01   6.677905E-01   6.442000E-01   6.858792E-01   7.424369E-01   7.830933E-01   8.084837E-01   8.047515E-01   7.778679E-01   7.601410E-01   7.409979E-01   6.906705E-01   6.330395E-01   5.957506E-01   5.621920E-01   5.302467E-01   5.332903E-01   5.766162E-01   6.178163E-01   6.251237E-01   6.021922E-01   5.530028E-01   4.976423E-01   4.682606E-01   4.623609E-01   4.561031E-01   4.566345E-01   4.828200E-01
   4.244168E-01   4.504766E-01   4.536308E-01   4.445797E-01   4.309784E-01   3.986311E-01   3.603432E-01   3.485456E-01   3.668334E-01   3.955160E-01   4.252500E-01   4.526184E-01   4.615333E-01   4.511670E-01   4.355782E-01   4.045976E-01   3.521216E-01   3.095653E-01   2.981591E-01   3.051379E-01   3.133756E-01   3.217248E-01   3.243666E-01   3.098843E-01   2.873310E-01   2.697574E-01   2.552275E-01   2.473126E-01   2.593226E-01   2.901385E-01   3.237933E-01   3.625764E-01   4.234758E-01   4.931415E-01   5.357578E-01   5.472116E-01   5.406005E-01   5.246155E-01   5.231041E-01   5.461507E-01   5.572398E-01   5.317408E-01   5.050287E-01   5.015964E-01   5.072990E-01   5.209947E-01   5.592692E-01   6.096253E-01   6.449810E-01   6.735169E-01   7.076784E-01   7.385628E-01   7.824324E-01   8.604196E-01   9.218171E-01   9.083624E-01   8.740124E-01   8.838254E-01   9.210324E-01   9.539510E-01   9.780834E-01   9.658648E-01   9.002475E-01   8.271829E-01   7.710252E-01   7.092545E-01   6.563205E-01   6.529911E-01   6.871964E-01   7.077184E-01   7.044356E-01   6.925504E-01   6.584080E-01   6.053112E-01   5.679851E-01   5.564122E-01   5.635900E-01   6.010846E-01   6.635182E-01   6.930942E-01   6.688990E-01   6.562986E-01   6.973464E-01   7.750698E-01   8.679774E-01   9.555510E-01   9.866354E-01   9.564271E-01   9.349699E-01   9.496712E-01   9.753882E-01   1.022320E+00   1.100916E+00   1.131953E+00   1.057471E+00   9.597031E-01   9.104481E-01   8.997885E-01   9.147374E-01   9.474742E-01   9.533606E-01   9.158631E-01   8.850053E-01   8.709354E-01   8.312599E-01   7.814191E-01   7.747870E-01   8.015221E-01   8.129378E-01   8.033420E-01   7.850171E-01   7.537469E-01   7.340153E-01   7.579772E-01   8.000088E-01   8.109122E-01   7.927015E-01   7.479110E-01   6.532511E-01   5.462422E-01
   2.643100E-01   2.835235E-01   3.103548E-01   3.183897E-01   3.071035E-01   2.960458E-01   2.875300E-01   2.818883E-01   2.926536E-01   3.248371E-01   3.671924E-01   4.131020E-01   4.555497E-01   4.656627E-01   4.370562E-01   4.051728E-01   3.814138E-01   3.491018E-01   3.150879E-01   2.997543E-01   3.008028E-01   3.055731E-01   3.126442E-01   3.199049E-01   3.220752E-01   3.326501E-01   3.669191E-01   4.051137E-01   4.140886E-01   4.028605E-01   3.934818E-01   3.871450E-01   3.941170E-01   4.364562E-01   5.116770E-01   5.888328E-01   6.449295E-01   6.621336E-01   6.287178E-01   5.900623E-01   6.024589E-01   6.554043E-01   6.949084E-01   7.125162E-01   7.355391E-01   7.628637E-01   7.957186E-01   8.544047E-01   9.202734E-01   9.533606E-01   9.710646E-01   9.918352E-01   9.785881E-01   9.433401E-01   9.679790E-01   1.080898E+00   1.236806E+00   1.412294E+00   1.607267E+00   1.744842E+00   1.761118E+00   1.708425E+00   1.619200E+00   1.505204E+00   1.452768E+00   1.493881E+00   1.491938E+00   1.333202E+00   1.117201E+00   9.526559E-01   8.570731E-01   8.405224E-01   9.011913E-01   9.759120E-01   9.952826E-01   9.683028E-01   9.118004E-01   8.276267E-01   7.708319E-01   7.924253E-01   8.602520E-01   9.009218E-01   9.050197E-01   8.998552E-01   8.874090E-01   8.826883E-01   8.991247E-01   8.952373E-01   8.454384E-01   8.020287E-01   7.926358E-01   7.820715E-01   7.676139E-01   7.948119E-01   8.682669E-01   9.450314E-01   1.001825E+00   1.020186E+00   9.655315E-01   8.728715E-01   8.145473E-01   7.971327E-01   8.015792E-01   8.508962E-01   9.484779E-01   1.003406E+00   9.462209E-01   8.440403E-01   7.689730E-01   7.414065E-01   7.765774E-01   8.609301E-01   9.211515E-01   9.202953E-01   9.106138E-01   9.101433E-01   8.881747E-01   8.634605E-01   8.690269E-01   8.728954E-01
   2.140826E-01   2.136283E-01   2.094256E-01   2.113817E-01   2.121769E-01   2.101370E-01   2.144473E-01   2.252059E-01   2.354846E-01   2.446442E-01   2.486983E-01   2.406796E-01   2.346151E-01   2.530048E-01   2.968163E-01   3.465514E-01   3.891420E-01   4.143972E-01   4.011739E-01   3.598318E-01   3.292311E-01   3.252132E-01   3.458476E-01   3.921438E-01   4.470358E-01   4.625418E-01   4.320250E-01   4.025795E-01   3.895620E-01   3.745435E-01   3.548577E-01   3.393202E-01   3.257427E-01   3.196115E-01   3.382955E-01   3.848774E-01   4.487081E-01   5.346426E-01   6.434058E-01   7.192740E-01   7.182837E-01   6.898648E-01   6.787700E-01   6.820861E-01   7.108106E-01   7.868646E-01   8.926707E-01   9.965398E-01   1.094945E+00   1.153409E+00   1.130420E+00   1.106240E+00   1.190856E+00   1.372819E+00   1.547641E+00   1.658446E+00   1.691301E+00   1.636313E+00   1.579020E+00   1.619009E+00   1.728662E+00   1.830039E+00   1.913568E+00   1.924844E+00   1.761622E+00   1.523204E+00   1.387562E+00   1.362601E+00   1.362201E+00   1.352792E+00   1.328050E+00   1.266586E+00   1.204674E+00   1.189227E+00   1.169666E+00   1.084060E+00   9.795119E-01   8.972000E-01   8.029573E-01   6.939656E-01   6.154612E-01   5.770904E-01   5.629329E-01   5.765238E-01   6.171307E-01   6.519359E-01   6.651154E-01   6.758254E-01   6.725855E-01   6.344662E-01   6.024427E-01   6.211743E-01   6.735931E-01   7.190683E-01   7.519965E-01   7.776345E-01   8.022097E-01   8.679622E-01   1.003673E+00   1.150638E+00   1.238968E+00   1.300927E+00   1.358182E+00   1.369534E+00   1.368639E+00   1.433903E+00   1.542270E+00   1.615819E+00   1.642780E+00   1.615362E+00   1.512547E+00   1.401171E+00   1.333450E+00   1.241111E+00   1.089279E+00   9.685695E-01   9.309958E-01   9.382774E-01   9.559891E-01   9.802642E-01
   1.381895E-01   1.298327E-01   1.262833E-01   1.292385E-01   1.394600E-01   1.473234E-01   1.442959E-01   1.347363E-01   1.246358E-01   1.187351E-01   1.248425E-01   1.455130E-01   1.686483E-01   1.814611E-01   1.913711E-01   2.080838E-01   2.303657E-01   2.597502E-01   2.983620E-01   3.316796E-01   3.469295E-01   3.539149E-01   3.561738E-01   3.489780E-01   3.495627E-01   3.751169E-01   4.065565E-01   4.144114E-01   4.052013E-01   3.909105E-01   3.654515E-01   3.350614E-01   3.133909E-01   2.991924E-01   2.938250E-01   3.100253E-01   3.437524E-01   3.675458E-01   3.781139E-01   4.040233E-01   4.536898E-01   5.112198E-01   5.695631E-01   6.168736E-01   6.247246E-01   6.061168E-01   6.058778E-01   6.349556E-01   6.918133E-01   8.037439E-01   9.668838E-01   1.075546E+00   1.057080E+00   9.849021E-01   9.194286E-01   8.633405E-01   8.304037E-01   8.225174E-01   8.149482E-01   8.231831E-01   8.932221E-01   1.007092E+00   1.090774E+00   1.139372E+00   1.188389E+00   1.203331E+00   1.163342E+00   1.124906E+00   1.108507E+00   1.085412E+00   1.062375E+00   1.045376E+00   9.951969E-01   9.204248E-01   8.806236E-01   8.665051E-01   8.177900E-01   7.457120E-01   7.016910E-01   6.839127E-01   6.691561E-01   6.555043E-01   6.315386E-01   5.850796E-01   5.473773E-01   5.464231E-01   5.592788E-01   5.582398E-01   5.575122E-01   5.618901E-01   5.445794E-01   5.098532E-01   4.905864E-01   4.923454E-01   5.077924E-01   5.470945E-01   6.127489E-01   6.903924E-01   8.022211E-01   9.941113E-01   1.215883E+00   1.319660E+00   1.283928E+00   1.201331E+00   1.119668E+00   1.080936E+00   1.125963E+00   1.223730E+00   1.306498E+00   1.367734E+00   1.396590E+00   1.328983E+00   1.200207E+00   1.115573E+00   1.072889E+00   1.006720E+00   9.243122E-01   8.632548E-01   8.153054E-01   7.756717E-01