# File generated by Flopy version 3.9.1 on 02/25/2025 at 18:49:22.
BEGIN options
END options

BEGIN griddata
  iconvert
    CONSTANT  0
  ss
    CONSTANT       0.00000000
  sy
    CONSTANT       0.00000000
END griddata

