# File generated by Flopy version 3.9.1 on 02/25/2025 at 18:49:22.
BEGIN options
  SCHEME  upstream
END options

