# File generated by Flopy version 3.9.1 on 05/12/2025 at 07:13:38.
BEGIN options
  BUDGET  FILEOUT  ex-gwf-bump.cbc
  HEAD  FILEOUT  ex-gwf-bump.hds
END options

BEGIN period  1
  SAVE  HEAD  ALL
  SAVE  BUDGET  ALL
END period  1

