# File generated by Flopy version 3.9.1 on 05/12/2025 at 07:13:38.
BEGIN options
END options

BEGIN griddata
  strt
    CONSTANT       7.50000000
END griddata

