# File generated by Flopy version 3.9.1 on 04/15/2025 at 06:40:49.
BEGIN options
END options

BEGIN griddata
  strt
    CONSTANT      50.00000000
END griddata

