# File generated by Flopy version 3.9.1 on 02/24/2025 at 11:19:35.
BEGIN options
  TIME_UNITS  days
END options

BEGIN dimensions
  NPER  2
END dimensions

BEGIN perioddata
       1.00000000  728       1.00000000
     729.00000000  730       1.00000000
END perioddata

