# File generated by Flopy version 3.9.1 on 02/24/2025 at 11:19:35.
BEGIN options
  BUDGET  FILEOUT  gwf-p03-mf6.bud
  HEAD  FILEOUT  gwf-p03-mf6.hds
  HEAD  PRINT_FORMAT  COLUMNS  10  WIDTH  15  DIGITS  6  GENERAL
END options

BEGIN period  1
  SAVE  HEAD  LAST
  SAVE  BUDGET  LAST
  PRINT  HEAD  LAST
  PRINT  BUDGET  LAST
END period  1

