# File generated by Flopy version 3.9.1 on 02/24/2025 at 11:19:35.
BEGIN options
END options

BEGIN griddata
  porosity
    CONSTANT       0.30000000
END griddata

