# File generated by Flopy version 3.9.1 on 02/17/2025 at 07:33:52.
BEGIN options
END options

BEGIN griddata
  porosity
    CONSTANT       1.95700000
  volfrac
    CONSTANT       0.81093510
  zetaim
    CONSTANT      20.00000000
END griddata

