# File generated by Flopy version 3.9.1 on 06/14/2025 at 08:18:09.
BEGIN options
END options

BEGIN dimensions
  MAXBOUND  9
END dimensions

BEGIN period  1
  1 23 7 -1.25832872E-02
  1 25 16 -9.55504366E-03
  1 5 10 -8.37359096E-05
  1 14 14 -8.71803120E-03
  1 25 3 -8.23305446E-03
  1 12 4 -1.10408243E-03
  1 24 9 -1.37439390E-02
  1 5 2 -3.03928044E-03
  1 33 13 -1.90616598E-02
END period  1

