# File generated by Flopy version 3.8.2 on 06/17/2025 at 07:26:06.
BEGIN options
END options

BEGIN dimensions
  MAXBOUND  10
END dimensions

BEGIN period  1
  1 5 13 -1.58255548E-02
  1 18 14 -1.53354653E-02
  1 1 15 -9.63353549E-03
  1 16 9 -3.05639486E-03
  1 23 2 -5.86210115E-03
  1 17 12 -6.57895959E-04
  1 9 14 -1.00302962E-02
  1 39 16 -1.86834385E-02
  1 37 13 -1.68886554E-02
  1 7 6 -2.33581355E-03
END period  1

