# File generated by Flopy version 3.9.1 on 06/14/2025 at 08:18:09.
BEGIN options
END options

BEGIN dimensions
  MAXBOUND  1
END dimensions

