# File generated by Flopy version 3.9.1 on 06/14/2025 at 08:18:09.
BEGIN options
END options

BEGIN timing
  TDIS6  Freyberg.tdis
END timing

BEGIN models
  gwf6  Freyberg.nam  freyberg
END models

BEGIN exchanges
END exchanges

BEGIN solutiongroup  1
  ims6  Freyberg.ims  freyberg
END solutiongroup  1

