# File generated by Flopy version 3.8.2 on 01/20/2025 at 08:20:56.
BEGIN options
  CONTINUE
END options

BEGIN timing
  TDIS6  sim.tdis
END timing

BEGIN models
  gwf6  sgn.nam  sgn
END models

BEGIN exchanges
END exchanges

BEGIN solutiongroup  1
  ims6  sim.ims  sgn
END solutiongroup  1

