# File generated by Flopy version 3.8.2 on 01/20/2025 at 08:21:00.
BEGIN options
  BUDGET  FILEOUT  sgn.cbb
  HEAD  FILEOUT  sgn.hds
  HEAD  PRINT_FORMAT  COLUMNS  10  WIDTH  15  DIGITS  3  GENERAL
END options

BEGIN period  1
  SAVE  HEAD  LAST
  SAVE  BUDGET  LAST
  PRINT  HEAD  LAST
  PRINT  BUDGET  ALL
END period  1

