# File generated by Flopy version 3.8.2 on 01/30/2025 at 09:09:01.
BEGIN options
END options

BEGIN timing
  TDIS6  Symple_03.tdis
END timing

BEGIN models
  gwf6  Symple_03.nam  Symple_03
END models

BEGIN exchanges
END exchanges

BEGIN solutiongroup  1
  ims6  Symple_03.ims  Symple_03
END solutiongroup  1

