# File generated by Flopy version 3.9.1 on 02/27/2025 at 08:16:08.
BEGIN options
  READASARRAYS
  PRINT_FLOWS
END options

BEGIN period  1
  recharge
    CONSTANT  2.73972603E-04
END period  1

