# File generated by Flopy version 3.9.1 on 02/27/2025 at 08:16:08.
BEGIN options
END options

BEGIN timing
  TDIS6  C_p08_V01.tdis
END timing

BEGIN models
  gwf6  gwf_p08_mf6.nam  gwf_p08_mf6
  gwt6  gwt_p08_mf6.nam  gwt_p08_mf6
END models

BEGIN exchanges
  GWF6-GWT6  p08_mf6.gwfgwt  gwf_p08_mf6  gwt_p08_mf6
END exchanges

BEGIN solutiongroup  1
  ims6  gwf_p08_mf6.ims  gwf_p08_mf6
  ims6  gwt_p08_mf6.ims  gwt_p08_mf6
END solutiongroup  1

