# File generated by Flopy version 3.9.1 on 02/12/2025 at 11:15:49.
BEGIN options
  FIRST_ORDER_DECAY
  SORPTION  linear
END options

BEGIN griddata
  porosity
    CONSTANT       0.25000000
  decay
    CONSTANT       0.00200000
  decay_sorbed
    CONSTANT       0.00200000
  bulk_density
    CONSTANT       0.25000000
  distcoef
    CONSTANT       4.00000000
END griddata

