# Name file for MT3DMS, generated by Flopy version 3.9.1.
LIST              16  conserv_pulse_mt.list
FTL               10  mt3d_link.ftl 
BTN               31  conserv_pulse_mt.btn
ADV               32  conserv_pulse_mt.adv
DSP               33  conserv_pulse_mt.dsp
SSM               34  conserv_pulse_mt.ssm
RCT               36  conserv_pulse_mt.rct
GCG               35  conserv_pulse_mt.gcg
