# File generated by Flopy version 3.9.1 on 06/11/2025 at 09:26:33.
BEGIN options
  READASARRAYS
END options

BEGIN period  1
  recharge
    CONSTANT       0.00400000
END period  1

