# File generated by Flopy version 3.9.1 on 06/30/2025 at 14:22:23.
BEGIN options
END options

BEGIN period  1
  PRINT  BUDGET  ALL
END period  1

