# File generated by Flopy version 3.9.1 on 06/30/2025 at 14:22:23.
BEGIN options
  TIME_UNITS  days
END options

BEGIN dimensions
  NPER  353
END dimensions

BEGIN perioddata
     365.25000000  12       1.00000000
     365.25000000  12       1.00000000
     365.25000000  12       1.00000000
     365.25000000  12       1.00000000
     365.25000000  12       1.00000000
     365.25000000  12       1.00000000
     365.25000000  12       1.00000000
     365.25000000  12       1.00000000
     365.25000000  12       1.00000000
     365.25000000  12       1.00000000
     365.25000000  12       1.00000000
     365.25000000  12       1.00000000
     365.25000000  12       1.00000000
     365.25000000  12       1.00000000
     365.25000000  12       1.00000000
     365.25000000  12       1.00000000
     365.25000000  12       1.00000000
     365.25000000  12       1.00000000
     365.25000000  12       1.00000000
     365.25000000  12       1.00000000
     365.25000000  12       1.00000000
     365.25000000  12       1.00000000
     365.25000000  12       1.00000000
     365.25000000  12       1.00000000
     365.25000000  12       1.00000000
     365.25000000  12       1.00000000
     365.25000000  12       1.00000000
     365.25000000  12       1.00000000
     365.25000000  12       1.00000000
     365.25000000  12       1.00000000
     365.25000000  12       1.00000000
     365.25000000  12       1.00000000
     365.25000000  12       1.00000000
     365.25000000  12       1.00000000
     365.25000000  12       1.00000000
     365.25000000  12       1.00000000
     365.25000000  12       1.00000000
     365.25000000  12       1.00000000
     365.25000000  12       1.00000000
     365.25000000  12       1.00000000
     365.25000000  12       1.00000000
     365.25000000  12       1.00000000
     365.25000000  12       1.00000000
     365.25000000  12       1.00000000
     365.25000000  12       1.00000000
     365.25000000  12       1.00000000
     365.25000000  12       1.00000000
     365.25000000  12       1.00000000
     365.25000000  12       1.00000000
     365.25000000  12       1.00000000
     365.25000000  12       1.00000000
     365.25000000  12       1.00000000
     365.25000000  12       1.00000000
     365.25000000  12       1.00000000
     365.25000000  12       1.00000000
     365.25000000  12       1.00000000
     365.25000000  12       1.00000000
     365.25000000  12       1.00000000
     365.25000000  12       1.00000000
     365.25000000  12       1.00000000
     365.25000000  12       1.00000000
     365.25000000  12       1.00000000
     365.25000000  12       1.00000000
     365.25000000  12       1.00000000
     365.25000000  12       1.00000000
     365.25000000  12       1.00000000
     365.25000000  12       1.00000000
     365.25000000  12       1.00000000
     365.25000000  12       1.00000000
     365.25000000  12       1.00000000
     365.25000000  12       1.00000000
     365.25000000  12       1.00000000
     365.25000000  12       1.00000000
     365.25000000  12       1.00000000
     365.25000000  12       1.00000000
     365.25000000  12       1.00000000
     365.25000000  12       1.00000000
     365.25000000  12       1.00000000
     365.25000000  12       1.00000000
     365.25000000  12       1.00000000
     365.25000000  12       1.00000000
     365.25000000  12       1.00000000
      22.00000000  22       1.00000000
      22.00000000  22       1.00000000
      22.00000000  22       1.00000000
      22.00000000  22       1.00000000
      22.00000000  22       1.00000000
      22.00000000  22       1.00000000
      22.00000000  22       1.00000000
      22.00000000  22       1.00000000
      22.00000000  22       1.00000000
      22.00000000  22       1.00000000
      22.00000000  22       1.00000000
      22.00000000  22       1.00000000
      22.00000000  22       1.00000000
      22.00000000  22       1.00000000
      22.00000000  22       1.00000000
      22.00000000  22       1.00000000
      22.00000000  22       1.00000000
      22.00000000  22       1.00000000
      22.00000000  22       1.00000000
      22.00000000  22       1.00000000
      22.00000000  22       1.00000000
      22.00000000  22       1.00000000
      22.00000000  22       1.00000000
      22.00000000  22       1.00000000
      22.00000000  22       1.00000000
      22.00000000  22       1.00000000
      22.00000000  22       1.00000000
      22.00000000  22       1.00000000
      22.00000000  22       1.00000000
      22.00000000  22       1.00000000
      22.00000000  22       1.00000000
      22.00000000  22       1.00000000
      22.00000000  22       1.00000000
      22.00000000  22       1.00000000
      22.00000000  22       1.00000000
      22.00000000  22       1.00000000
      22.00000000  22       1.00000000
      22.00000000  22       1.00000000
      22.00000000  22       1.00000000
      22.00000000  22       1.00000000
      22.00000000  22       1.00000000
      22.00000000  22       1.00000000
      22.00000000  22       1.00000000
      22.00000000  22       1.00000000
      22.00000000  22       1.00000000
      22.00000000  22       1.00000000
      22.00000000  22       1.00000000
      22.00000000  22       1.00000000
      22.00000000  22       1.00000000
      22.00000000  22       1.00000000
      22.00000000  22       1.00000000
      22.00000000  22       1.00000000
      22.00000000  22       1.00000000
      22.00000000  22       1.00000000
      22.00000000  22       1.00000000
      22.00000000  22       1.00000000
      22.00000000  22       1.00000000
      22.00000000  22       1.00000000
      22.00000000  22       1.00000000
      22.00000000  22       1.00000000
      22.00000000  22       1.00000000
      22.00000000  22       1.00000000
      22.00000000  22       1.00000000
      22.00000000  22       1.00000000
      22.00000000  22       1.00000000
      22.00000000  22       1.00000000
      22.00000000  22       1.00000000
      22.00000000  22       1.00000000
      22.00000000  22       1.00000000
      22.00000000  22       1.00000000
      22.00000000  22       1.00000000
      22.00000000  22       1.00000000
      22.00000000  22       1.00000000
      22.00000000  22       1.00000000
      22.00000000  22       1.00000000
      22.00000000  22       1.00000000
      22.00000000  22       1.00000000
      22.00000000  22       1.00000000
      22.00000000  22       1.00000000
      22.00000000  22       1.00000000
      22.00000000  22       1.00000000
      22.00000000  22       1.00000000
      22.00000000  22       1.00000000
      22.00000000  22       1.00000000
      22.00000000  22       1.00000000
      22.00000000  22       1.00000000
      22.00000000  22       1.00000000
      22.00000000  22       1.00000000
      22.00000000  22       1.00000000
      22.00000000  22       1.00000000
      22.00000000  22       1.00000000
      22.00000000  22       1.00000000
      22.00000000  22       1.00000000
      22.00000000  22       1.00000000
      22.00000000  22       1.00000000
      22.00000000  22       1.00000000
      22.00000000  22       1.00000000
      22.00000000  22       1.00000000
      22.00000000  22       1.00000000
      22.00000000  22       1.00000000
      22.00000000  22       1.00000000
      22.00000000  22       1.00000000
      22.00000000  22       1.00000000
      22.00000000  22       1.00000000
      22.00000000  22       1.00000000
      22.00000000  22       1.00000000
      22.00000000  22       1.00000000
      22.00000000  22       1.00000000
      22.00000000  22       1.00000000
      22.00000000  22       1.00000000
      22.00000000  22       1.00000000
      22.00000000  22       1.00000000
      22.00000000  22       1.00000000
      22.00000000  22       1.00000000
      22.00000000  22       1.00000000
      22.00000000  22       1.00000000
      22.00000000  22       1.00000000
      22.00000000  22       1.00000000
      22.00000000  22       1.00000000
      22.00000000  22       1.00000000
      22.00000000  22       1.00000000
      22.00000000  22       1.00000000
      22.00000000  22       1.00000000
      22.00000000  22       1.00000000
      22.00000000  22       1.00000000
      22.00000000  22       1.00000000
      22.00000000  22       1.00000000
      22.00000000  22       1.00000000
      22.00000000  22       1.00000000
      22.00000000  22       1.00000000
      22.00000000  22       1.00000000
      22.00000000  22       1.00000000
      22.00000000  22       1.00000000
      22.00000000  22       1.00000000
      22.00000000  22       1.00000000
      22.00000000  22       1.00000000
      22.00000000  22       1.00000000
      22.00000000  22       1.00000000
      22.00000000  22       1.00000000
      22.00000000  22       1.00000000
      22.00000000  22       1.00000000
      22.00000000  22       1.00000000
      22.00000000  22       1.00000000
      22.00000000  22       1.00000000
      22.00000000  22       1.00000000
      22.00000000  22       1.00000000
      22.00000000  22       1.00000000
      22.00000000  22       1.00000000
      22.00000000  22       1.00000000
      22.00000000  22       1.00000000
      22.00000000  22       1.00000000
      22.00000000  22       1.00000000
      22.00000000  22       1.00000000
      22.00000000  22       1.00000000
      22.00000000  22       1.00000000
      22.00000000  22       1.00000000
      22.00000000  22       1.00000000
      22.00000000  22       1.00000000
      22.00000000  22       1.00000000
      22.00000000  22       1.00000000
      22.00000000  22       1.00000000
      22.00000000  22       1.00000000
      22.00000000  22       1.00000000
      22.00000000  22       1.00000000
      22.00000000  22       1.00000000
      22.00000000  22       1.00000000
      22.00000000  22       1.00000000
      22.00000000  22       1.00000000
      22.00000000  22       1.00000000
      22.00000000  22       1.00000000
      22.00000000  22       1.00000000
      22.00000000  22       1.00000000
      22.00000000  22       1.00000000
      22.00000000  22       1.00000000
      22.00000000  22       1.00000000
      22.00000000  22       1.00000000
      22.00000000  22       1.00000000
      22.00000000  22       1.00000000
      22.00000000  22       1.00000000
      22.00000000  22       1.00000000
      22.00000000  22       1.00000000
      22.00000000  22       1.00000000
      22.00000000  22       1.00000000
      22.00000000  22       1.00000000
      22.00000000  22       1.00000000
      22.00000000  22       1.00000000
      22.00000000  22       1.00000000
      22.00000000  22       1.00000000
      22.00000000  22       1.00000000
      22.00000000  22       1.00000000
      22.00000000  22       1.00000000
      22.00000000  22       1.00000000
      22.00000000  22       1.00000000
      22.00000000  22       1.00000000
      22.00000000  22       1.00000000
      22.00000000  22       1.00000000
      22.00000000  22       1.00000000
      22.00000000  22       1.00000000
      22.00000000  22       1.00000000
      22.00000000  22       1.00000000
      22.00000000  22       1.00000000
      22.00000000  22       1.00000000
      22.00000000  22       1.00000000
      22.00000000  22       1.00000000
      22.00000000  22       1.00000000
      22.00000000  22       1.00000000
      22.00000000  22       1.00000000
      22.00000000  22       1.00000000
      22.00000000  22       1.00000000
      22.00000000  22       1.00000000
      22.00000000  22       1.00000000
      22.00000000  22       1.00000000
      22.00000000  22       1.00000000
      22.00000000  22       1.00000000
      22.00000000  22       1.00000000
      22.00000000  22       1.00000000
      22.00000000  22       1.00000000
      22.00000000  22       1.00000000
      22.00000000  22       1.00000000
      22.00000000  22       1.00000000
      22.00000000  22       1.00000000
      22.00000000  22       1.00000000
      22.00000000  22       1.00000000
      22.00000000  22       1.00000000
      22.00000000  22       1.00000000
      22.00000000  22       1.00000000
      22.00000000  22       1.00000000
      22.00000000  22       1.00000000
      22.00000000  22       1.00000000
      22.00000000  22       1.00000000
      22.00000000  22       1.00000000
      22.00000000  22       1.00000000
      22.00000000  22       1.00000000
      22.00000000  22       1.00000000
      22.00000000  22       1.00000000
      22.00000000  22       1.00000000
      22.00000000  22       1.00000000
      22.00000000  22       1.00000000
      22.00000000  22       1.00000000
      22.00000000  22       1.00000000
      22.00000000  22       1.00000000
      22.00000000  22       1.00000000
      22.00000000  22       1.00000000
      22.00000000  22       1.00000000
      22.00000000  22       1.00000000
      22.00000000  22       1.00000000
      22.00000000  22       1.00000000
      22.00000000  22       1.00000000
      22.00000000  22       1.00000000
      22.00000000  22       1.00000000
      22.00000000  22       1.00000000
      22.00000000  22       1.00000000
      22.00000000  22       1.00000000
      22.00000000  22       1.00000000
      22.00000000  22       1.00000000
      22.00000000  22       1.00000000
      22.00000000  22       1.00000000
      22.00000000  22       1.00000000
      22.00000000  22       1.00000000
      22.00000000  22       1.00000000
      22.00000000  22       1.00000000
      22.00000000  22       1.00000000
      22.00000000  22       1.00000000
      22.00000000  22       1.00000000
      22.00000000  22       1.00000000
      22.00000000  22       1.00000000
      22.00000000  22       1.00000000
      22.00000000  22       1.00000000
      22.00000000  22       1.00000000
      22.00000000  22       1.00000000
      22.00000000  22       1.00000000
END perioddata

