# File generated by Flopy version 3.8.2 on 01/30/2025 at 09:09:01.
BEGIN options
  READASARRAYS
END options

BEGIN period  1
  irch
    OPEN/CLOSE  '27_Topo___.dat'  FACTOR  1
  recharge
    OPEN/CLOSE  '01_rch.dat'  FACTOR  1.0
END period  1

