# File generated by Flopy version 3.8.2 on 01/30/2025 at 09:09:01.
BEGIN options
END options

BEGIN griddata
  strt  LAYERED
    OPEN/CLOSE  'GMS_001_L0.dat'  FACTOR  1.0
    OPEN/CLOSE  'GMS_001_L0.dat'  FACTOR  1.0
    OPEN/CLOSE  'GMS_001_L0.dat'  FACTOR  1.0
END griddata

