# DIS package for MODFLOW-2005 generated by Flopy 3.9.1
        20         1        40         3         4         2
  0  0  0  0  0  0  0  0  0  0  0  0  0  0  0  0  0  0  0  0
CONSTANT    1.000000E-02                           #delr                          
CONSTANT    3.000000E-02                           #delc                          
CONSTANT    0.000000E+00                           #model_top                     
CONSTANT   -1.000000E-02                           #botm layer 1                  
CONSTANT   -2.000000E-02                           #botm layer 2                  
CONSTANT   -3.000000E-02                           #botm layer 3                  
CONSTANT   -4.000000E-02                           #botm layer 4                  
CONSTANT   -5.000000E-02                           #botm layer 5                  
CONSTANT   -6.000000E-02                           #botm layer 6                  
CONSTANT   -7.000000E-02                           #botm layer 7                  
CONSTANT   -8.000000E-02                           #botm layer 8                  
CONSTANT   -9.000000E-02                           #botm layer 9                  
CONSTANT   -1.000000E-01                           #botm layer 10                 
CONSTANT   -1.100000E-01                           #botm layer 11                 
CONSTANT   -1.200000E-01                           #botm layer 12                 
CONSTANT   -1.300000E-01                           #botm layer 13                 
CONSTANT   -1.400000E-01                           #botm layer 14                 
CONSTANT   -1.500000E-01                           #botm layer 15                 
CONSTANT   -1.600000E-01                           #botm layer 16                 
CONSTANT   -1.700000E-01                           #botm layer 17                 
CONSTANT   -1.800000E-01                           #botm layer 18                 
CONSTANT   -1.900000E-01                           #botm layer 19                 
CONSTANT   -2.000000E-01                           #botm layer 20                 
     10.000000             1  1.000000  SS
     22.000000             1  1.000000  SS
     50.000000             1  1.000000  SS
