# File generated by Flopy version 3.9.1 on 05/18/2025 at 09:44:07.
BEGIN options
  TIME_UNITS  days
END options

BEGIN dimensions
  NPER  1
END dimensions

BEGIN perioddata
       1.00000000  1       1.00000000
END perioddata

