# File generated by Flopy version 3.9.1 on 05/18/2025 at 09:44:07.
BEGIN options
END options

BEGIN griddata
  strt
    CONSTANT       0.00000000
END griddata

