# Name file for MODPATH 7, generated by Flopy version 3.9.1.
MPBAS      ex-gwf-whirl_mp.mpbas
GRBDIS     .\ex-gwf-whirl.dis.grb
TDIS       .\ex-gwf-whirl.tdis
HEAD       .\ex-gwf-whirl.hds
BUDGET     .\ex-gwf-whirl.cbc
