# File generated by Flopy version 3.9.1 on 05/21/2025 at 13:26:32.
BEGIN options
END options

BEGIN griddata
  strt
    CONSTANT       0.00000000
END griddata

