# File generated by Flopy version 3.9.1 on 05/21/2025 at 13:26:32.
BEGIN options
END options

BEGIN timing
  TDIS6  ex-gwf-whirl.tdis
END timing

BEGIN models
  gwf6  ex-gwf-whirl.nam  ex-gwf-whirl
END models

BEGIN exchanges
END exchanges

BEGIN solutiongroup  1
  ims6  ex-gwf-whirl.ims  ex-gwf-whirl
END solutiongroup  1

