# File generated by Flopy version 3.9.1 on 04/11/2025 at 10:58:01.
BEGIN options
END options

BEGIN griddata
  icelltype
    CONSTANT  1
  k
    CONSTANT       0.00304800
END griddata

