# File generated by Flopy version 3.9.1 on 06/21/2025 at 10:53:35.
BEGIN options
END options

BEGIN griddata
  icelltype
    CONSTANT  1
  k
    CONSTANT       0.00304800
END griddata

