# File generated by Flopy version 3.9.1 on 04/15/2025 at 08:46:33.
BEGIN options
END options

