# File generated by Flopy version 3.9.1 on 04/15/2025 at 09:55:19.
BEGIN options
END options

BEGIN period  1
  PRINT  budget  all
END period  1

