# File generated by Flopy version 3.9.1 on 04/15/2025 at 09:55:19.
BEGIN options
END options

BEGIN timing
  TDIS6  ex-gwf-sfr-psb.tdis
END timing

BEGIN models
  gwf6  ex-gwf-sfr-psb.nam  ex-gwf-sfr-psb
END models

BEGIN exchanges
END exchanges

BEGIN solutiongroup  1
  ims6  ex-gwf-sfr-psb.ims  ex-gwf-sfr-psb
END solutiongroup  1

