# File generated by Flopy version 3.9.1 on 05/18/2025 at 14:58:19.
BEGIN options
  BUDGET  FILEOUT  track_whirl.cbc
  HEAD  FILEOUT  track_whirl.hds
END options

BEGIN period  1
  SAVE  HEAD  ALL
  SAVE  BUDGET  ALL
  PRINT  HEAD  ALL
  PRINT  BUDGET  ALL
END period  1

