# File generated by Flopy version 3.10.0.dev3 on 06/16/2025 at 08:45:41.
BEGIN options
  MEMORY_PRINT_OPTION  summary
END options

BEGIN timing
  TDIS6  sim.tdis
END timing

BEGIN models
  gwf6  model.nam  model
END models

BEGIN exchanges
END exchanges

BEGIN solutiongroup  1
  ims6  sim.ims  model
END solutiongroup  1

