# File generated by Flopy version 3.10.0.dev3 on 06/16/2025 at 08:45:41.
BEGIN options
  SAVE_SPECIFIC_DISCHARGE
END options

BEGIN griddata
  icelltype
    CONSTANT  1
  k
    CONSTANT       1.00000000
END griddata

