# File generated by Flopy version 3.9.1 on 05/12/2025 at 14:40:10.
BEGIN options
END options

BEGIN griddata
  strt
    CONSTANT       0.00000000
END griddata

