# File generated by Flopy version 3.9.1 on 05/17/2025 at 11:42:01.
BEGIN options
END options

BEGIN griddata
  strt
    CONSTANT       0.00000000
END griddata

