# File generated by Flopy version 3.9.1 on 03/01/2025 at 07:50:09.
BEGIN options
  TIME_UNITS  days
END options

BEGIN dimensions
  NPER  1
END dimensions

BEGIN perioddata
     100.00000000  10       1.00000000
END perioddata

