# File generated by Flopy version 3.9.1 on 05/08/2025 at 14:16:50.
BEGIN options
END options

BEGIN griddata
  strt
    CONSTANT      10.00000000
END griddata

