# File generated by Flopy version 3.9.1 on 07/03/2025 at 09:43:51.
BEGIN options
  SAVE_FLOWS
  NEWTON
END options

BEGIN packages
  DIS6  sfr-p01.dis  dis
  NPF6  sfr-p01.npf  npf
  STO6  sfr-p01.sto  sto
  IC6  sfr-p01.ic  ic
  GHB6  sfr-p01.ghb  ghb_0
  WEL6  sfr-p01.wel  wel_0
  RCH6  sfr-p01.rcha  rcha_0
  EVT6  sfr-p01.evta  evta_0
  SFR6  sfr-p01.sfr  sfr_0
  OC6  sfr-p01.oc  oc
END packages

