# File generated by Flopy version 3.9.1 on 06/21/2025 at 17:00:05.
BEGIN options
  BUDGET  FILEOUT  sfr-p01.cbc
  HEAD  FILEOUT  sfr-p01.hds
END options

BEGIN period  1
  SAVE  HEAD  LAST
  SAVE  BUDGET  LAST
END period  1

