# File generated by Flopy version 3.9.1 on 06/21/2025 at 17:00:05.
BEGIN options
END options

BEGIN griddata
  strt
    CONSTANT    1050.00000000
END griddata

