# File generated by Flopy version 3.9.1 on 07/03/2025 at 09:43:51.
BEGIN options
  SAVE_SPECIFIC_DISCHARGE
END options

BEGIN griddata
  icelltype
    CONSTANT  1
  k
    INTERNAL  FACTOR  1.0
         0.00200000       0.00200000       0.00000000       0.00000000       0.00000000       0.00000000       0.00000000       0.00000000       0.00000000       0.00000000
    4.00000000E-04       0.00200000       0.00200000       0.00000000       0.00000000  4.00000000E-04  4.00000000E-04  4.00000000E-04       0.00000000       0.00000000
         0.00000000  4.00000000E-04       0.00200000       0.00200000  4.00000000E-04  4.00000000E-04  4.00000000E-04  4.00000000E-04       0.00000000       0.00000000
    4.00000000E-04  4.00000000E-04  4.00000000E-04       0.00200000       0.00200000       0.00200000  4.00000000E-04  4.00000000E-04  4.00000000E-04       0.00000000
    4.00000000E-04  4.00000000E-04  4.00000000E-04       0.00200000       0.00200000       0.00200000       0.00200000       0.00200000       0.00200000       0.00200000
    4.00000000E-04  4.00000000E-04  4.00000000E-04       0.00200000       0.00200000       0.00200000       0.00200000       0.00200000  4.00000000E-04  4.00000000E-04
    4.00000000E-04  4.00000000E-04  4.00000000E-04       0.00200000       0.00200000       0.00200000       0.00200000       0.00200000  4.00000000E-04       0.00000000
         0.00000000  4.00000000E-04  4.00000000E-04       0.00200000       0.00200000       0.00200000       0.00200000  4.00000000E-04  4.00000000E-04       0.00000000
         0.00000000  4.00000000E-04  4.00000000E-04       0.00200000       0.00200000       0.00200000       0.00200000  4.00000000E-04  4.00000000E-04       0.00000000
         0.00000000  4.00000000E-04  4.00000000E-04       0.00200000       0.00200000       0.00200000       0.00200000  4.00000000E-04  4.00000000E-04  4.00000000E-04
         0.00000000  4.00000000E-04  4.00000000E-04       0.00200000       0.00200000       0.00200000       0.00200000  4.00000000E-04  4.00000000E-04       0.00000000
    4.00000000E-04  4.00000000E-04       0.00200000       0.00200000       0.00200000       0.00200000       0.00200000  4.00000000E-04  4.00000000E-04       0.00000000
         0.00200000       0.00200000       0.00200000       0.00200000       0.00200000       0.00200000       0.00200000       0.00200000       0.00200000       0.00000000
         0.00000000  4.00000000E-04  4.00000000E-04  4.00000000E-04  4.00000000E-04  4.00000000E-04  4.00000000E-04  4.00000000E-04       0.00200000       0.00000000
         0.00000000       0.00000000  4.00000000E-04  4.00000000E-04  4.00000000E-04  4.00000000E-04       0.00000000       0.00000000       0.00000000       0.00000000
END griddata

