# File generated by Flopy version 3.9.1 on 05/17/2025 at 10:07:56.
BEGIN OPTIONS
END OPTIONS

BEGIN CONTINUOUS  FILEOUT  test001e_UZF_3lay_obs.out
  id3_dpth=8.0  water-content  10  3.0
  id3_dpth=24.0  water-content  18  4.0
  id3_rch  uzf-gwrch  18
END CONTINUOUS  FILEOUT  test001e_UZF_3lay_obs.out

