# File generated by Flopy version 3.9.1 on 05/17/2025 at 10:07:56.
BEGIN OPTIONS
  BUDGET  FILEOUT  test001e_UZF_3lay.cbc
  BUDGETCSV  FILEOUT  test001e_UZF_3lay.cbc.csv
  HEAD  FILEOUT  test001e_UZF_3lay.hds
END OPTIONS

BEGIN PERIOD  1
  SAVE  head  all
  SAVE  budget  all
  PRINT  head  all
  PRINT  budget  all
END PERIOD  1

