# RCH package for MODFLOW-2005 generated by Flopy 3.9.1
         3        50
         1        -1 # Stress period 1
INTERNAL               1     (FREE) -1 #rech_1                        
   1.600000E-09   1.600000E-09   1.600000E-09   1.600000E-09   1.600000E-09   1.600000E-09   1.600000E-09   1.600000E-09   1.600000E-09   1.600000E-09   1.600000E-09   1.600000E-09   1.600000E-09   1.600000E-09   1.600000E-09   1.600000E-09   1.600000E-09   1.600000E-09   1.600000E-09   1.600000E-09
   1.600000E-09   1.600000E-09   1.600000E-09   1.600000E-09   1.600000E-09   1.600000E-09   1.600000E-09   1.600000E-09   1.600000E-09   1.600000E-09   1.600000E-09   1.600000E-09   1.600000E-09   1.600000E-09   1.600000E-09   1.600000E-09   1.600000E-09   1.600000E-09   1.600000E-09   1.600000E-09
   1.600000E-09   1.600000E-09   1.600000E-09   1.600000E-09   1.600000E-09   1.600000E-09   1.600000E-09   1.600000E-09   1.600000E-09   1.600000E-09   1.600000E-09   1.600000E-09   1.600000E-09   1.600000E-09   1.600000E-09   1.600000E-09   1.600000E-09   1.600000E-09   1.600000E-09   1.600000E-09
   1.600000E-09   1.600000E-09   1.600000E-09   1.600000E-09   1.600000E-09   1.600000E-09   1.600000E-09   1.600000E-09   1.600000E-09   1.600000E-09   1.600000E-09   1.600000E-09   1.600000E-09   1.600000E-09   1.600000E-09   1.600000E-09   1.600000E-09   1.600000E-09   1.600000E-09   1.600000E-09
   1.600000E-09   1.600000E-09   1.600000E-09   1.600000E-09   1.600000E-09   1.600000E-09   1.600000E-09   1.600000E-09   1.600000E-09   1.600000E-09   1.600000E-09   1.600000E-09   1.600000E-09   1.600000E-09   1.600000E-09   1.600000E-09   1.600000E-09   1.600000E-09   1.600000E-09   1.600000E-09
   1.600000E-09   1.600000E-09   1.600000E-09   1.600000E-09   1.600000E-09   1.600000E-09   1.600000E-09   1.600000E-09   1.600000E-09   1.600000E-09   1.600000E-09   1.600000E-09   1.600000E-09   1.600000E-09   1.600000E-09   1.600000E-09   1.600000E-09   1.600000E-09   1.600000E-09   1.600000E-09
   1.600000E-09   1.600000E-09   1.600000E-09   1.600000E-09   1.600000E-09   1.600000E-09   1.600000E-09   1.600000E-09   1.600000E-09   1.600000E-09   1.600000E-09   1.600000E-09   1.600000E-09   1.600000E-09   1.600000E-09   1.600000E-09   1.600000E-09   1.600000E-09   1.600000E-09   1.600000E-09
   1.600000E-09   1.600000E-09   1.600000E-09   1.600000E-09   1.600000E-09   1.600000E-09   1.600000E-09   1.600000E-09   1.600000E-09   1.600000E-09   1.600000E-09   1.600000E-09   1.600000E-09   1.600000E-09   1.600000E-09   1.600000E-09   1.600000E-09   1.600000E-09   1.600000E-09   1.600000E-09
   1.600000E-09   1.600000E-09   1.600000E-09   1.600000E-09   1.600000E-09   1.600000E-09   1.600000E-09   1.600000E-09   1.600000E-09   1.600000E-09   1.600000E-09   1.600000E-09   1.600000E-09   1.600000E-09   1.600000E-09   1.600000E-09   1.600000E-09   1.600000E-09   1.600000E-09   1.600000E-09
   1.600000E-09   1.600000E-09   1.600000E-09   1.600000E-09   1.600000E-09   1.600000E-09   1.600000E-09   1.600000E-09   1.600000E-09   1.600000E-09   1.600000E-09   1.600000E-09   1.600000E-09   1.600000E-09   1.600000E-09   1.600000E-09   1.600000E-09   1.600000E-09   1.600000E-09   1.600000E-09
   1.600000E-09   1.600000E-09   1.600000E-09   1.600000E-09   1.600000E-09   1.600000E-09   1.600000E-09   1.600000E-09   1.600000E-09   1.600000E-09   1.600000E-09   1.600000E-09   1.600000E-09   1.600000E-09   1.600000E-09   1.600000E-09   1.600000E-09   1.600000E-09   1.600000E-09   1.600000E-09
   1.600000E-09   1.600000E-09   1.600000E-09   1.600000E-09   1.600000E-09   1.600000E-09   1.600000E-09   1.600000E-09   1.600000E-09   1.600000E-09   1.600000E-09   1.600000E-09   1.600000E-09   1.600000E-09   1.600000E-09   1.600000E-09   1.600000E-09   1.600000E-09   1.600000E-09   1.600000E-09
   1.600000E-09   1.600000E-09   1.600000E-09   1.600000E-09   1.600000E-09   1.600000E-09   1.600000E-09   1.600000E-09   1.600000E-09   1.600000E-09   1.600000E-09   1.600000E-09   1.600000E-09   1.600000E-09   1.600000E-09   1.600000E-09   1.600000E-09   1.600000E-09   1.600000E-09   1.600000E-09
   1.600000E-09   1.600000E-09   1.600000E-09   1.600000E-09   1.600000E-09   1.600000E-09   1.600000E-09   1.600000E-09   1.600000E-09   1.600000E-09   1.600000E-09   1.600000E-09   1.600000E-09   1.600000E-09   1.600000E-09   1.600000E-09   1.600000E-09   1.600000E-09   1.600000E-09   1.600000E-09
   1.600000E-09   1.600000E-09   1.600000E-09   1.600000E-09   1.600000E-09   1.600000E-09   1.600000E-09   1.600000E-09   1.600000E-09   1.600000E-09   1.600000E-09   1.600000E-09   1.600000E-09   1.600000E-09   1.600000E-09   1.600000E-09   1.600000E-09   1.600000E-09   1.600000E-09   1.600000E-09
   1.600000E-09   1.600000E-09   1.600000E-09   1.600000E-09   1.600000E-09   1.600000E-09   1.600000E-09   1.600000E-09   1.600000E-09   1.600000E-09   1.600000E-09   1.600000E-09   1.600000E-09   1.600000E-09   1.600000E-09   1.600000E-09   1.600000E-09   1.600000E-09   1.600000E-09   1.600000E-09
   1.600000E-09   1.600000E-09   1.600000E-09   1.600000E-09   1.600000E-09   1.600000E-09   1.600000E-09   1.600000E-09   1.600000E-09   1.600000E-09   1.600000E-09   1.600000E-09   1.600000E-09   1.600000E-09   1.600000E-09   1.600000E-09   1.600000E-09   1.600000E-09   1.600000E-09   1.600000E-09
   1.600000E-09   1.600000E-09   1.600000E-09   1.600000E-09   1.600000E-09   1.600000E-09   1.600000E-09   1.600000E-09   1.600000E-09   1.600000E-09   1.600000E-09   1.600000E-09   1.600000E-09   1.600000E-09   1.600000E-09   1.600000E-09   1.600000E-09   1.600000E-09   1.600000E-09   1.600000E-09
   1.600000E-09   1.600000E-09   1.600000E-09   1.600000E-09   1.600000E-09   1.600000E-09   1.600000E-09   1.600000E-09   1.600000E-09   1.600000E-09   1.600000E-09   1.600000E-09   1.600000E-09   1.600000E-09   1.600000E-09   1.600000E-09   1.600000E-09   1.600000E-09   1.600000E-09   1.600000E-09
   1.600000E-09   1.600000E-09   1.600000E-09   1.600000E-09   1.600000E-09   1.600000E-09   1.600000E-09   1.600000E-09   1.600000E-09   1.600000E-09   1.600000E-09   1.600000E-09   1.600000E-09   1.600000E-09   1.600000E-09   1.600000E-09   1.600000E-09   1.600000E-09   1.600000E-09   1.600000E-09
   1.600000E-09   1.600000E-09   1.600000E-09   1.600000E-09   1.600000E-09   1.600000E-09   1.600000E-09   1.600000E-09   1.600000E-09   1.600000E-09   1.600000E-09   1.600000E-09   1.600000E-09   1.600000E-09   1.600000E-09   1.600000E-09   1.600000E-09   1.600000E-09   1.600000E-09   1.600000E-09
   1.600000E-09   1.600000E-09   1.600000E-09   1.600000E-09   1.600000E-09   1.600000E-09   1.600000E-09   1.600000E-09   1.600000E-09   1.600000E-09   1.600000E-09   1.600000E-09   1.600000E-09   1.600000E-09   1.600000E-09   1.600000E-09   1.600000E-09   1.600000E-09   1.600000E-09   1.600000E-09
   1.600000E-09   1.600000E-09   1.600000E-09   1.600000E-09   1.600000E-09   1.600000E-09   1.600000E-09   1.600000E-09   1.600000E-09   1.600000E-09   1.600000E-09   1.600000E-09   1.600000E-09   1.600000E-09   1.600000E-09   1.600000E-09   1.600000E-09   1.600000E-09   1.600000E-09   1.600000E-09
   1.600000E-09   1.600000E-09   1.600000E-09   1.600000E-09   1.600000E-09   1.600000E-09   1.600000E-09   1.600000E-09   1.600000E-09   1.600000E-09   1.600000E-09   1.600000E-09   1.600000E-09   1.600000E-09   1.600000E-09   1.600000E-09   1.600000E-09   1.600000E-09   1.600000E-09   1.600000E-09
   1.600000E-09   1.600000E-09   1.600000E-09   1.600000E-09   1.600000E-09   1.600000E-09   1.600000E-09   1.600000E-09   1.600000E-09   1.600000E-09   1.600000E-09   1.600000E-09   1.600000E-09   1.600000E-09   1.600000E-09   1.600000E-09   1.600000E-09   1.600000E-09   1.600000E-09   1.600000E-09
   1.600000E-09   1.600000E-09   1.600000E-09   1.600000E-09   1.600000E-09   1.600000E-09   1.600000E-09   1.600000E-09   1.600000E-09   1.600000E-09   1.600000E-09   1.600000E-09   1.600000E-09   1.600000E-09   1.600000E-09   1.600000E-09   1.600000E-09   1.600000E-09   1.600000E-09   1.600000E-09
   1.600000E-09   1.600000E-09   1.600000E-09   1.600000E-09   1.600000E-09   1.600000E-09   1.600000E-09   1.600000E-09   1.600000E-09   1.600000E-09   1.600000E-09   1.600000E-09   1.600000E-09   1.600000E-09   1.600000E-09   1.600000E-09   1.600000E-09   1.600000E-09   1.600000E-09   1.600000E-09
   1.600000E-09   1.600000E-09   1.600000E-09   1.600000E-09   1.600000E-09   1.600000E-09   1.600000E-09   1.600000E-09   1.600000E-09   1.600000E-09   1.600000E-09   1.600000E-09   1.600000E-09   1.600000E-09   1.600000E-09   1.600000E-09   1.600000E-09   1.600000E-09   1.600000E-09   1.600000E-09
   1.600000E-09   1.600000E-09   1.600000E-09   1.600000E-09   1.600000E-09   1.600000E-09   1.600000E-09   1.600000E-09   1.600000E-09   1.600000E-09   1.600000E-09   1.600000E-09   1.600000E-09   1.600000E-09   1.600000E-09   1.600000E-09   1.600000E-09   1.600000E-09   1.600000E-09   1.600000E-09
   1.600000E-09   1.600000E-09   1.600000E-09   1.600000E-09   1.600000E-09   1.600000E-09   1.600000E-09   1.600000E-09   1.600000E-09   1.600000E-09   1.600000E-09   1.600000E-09   1.600000E-09   1.600000E-09   1.600000E-09   1.600000E-09   1.600000E-09   1.600000E-09   1.600000E-09   1.600000E-09
   1.600000E-09   1.600000E-09   1.600000E-09   1.600000E-09   1.600000E-09   1.600000E-09   1.600000E-09   1.600000E-09   1.600000E-09   1.600000E-09   1.600000E-09   1.600000E-09   1.600000E-09   1.600000E-09   1.600000E-09   1.600000E-09   1.600000E-09   1.600000E-09   1.600000E-09   1.600000E-09
   1.600000E-09   1.600000E-09   1.600000E-09   1.600000E-09   1.600000E-09   1.600000E-09   1.600000E-09   1.600000E-09   1.600000E-09   1.600000E-09   1.600000E-09   1.600000E-09   1.600000E-09   1.600000E-09   1.600000E-09   1.600000E-09   1.600000E-09   1.600000E-09   1.600000E-09   1.600000E-09
   1.600000E-09   1.600000E-09   1.600000E-09   1.600000E-09   1.600000E-09   1.600000E-09   1.600000E-09   1.600000E-09   1.600000E-09   1.600000E-09   1.600000E-09   1.600000E-09   1.600000E-09   1.600000E-09   1.600000E-09   1.600000E-09   1.600000E-09   1.600000E-09   1.600000E-09   1.600000E-09
   1.600000E-09   1.600000E-09   1.600000E-09   1.600000E-09   1.600000E-09   1.600000E-09   1.600000E-09   1.600000E-09   1.600000E-09   1.600000E-09   1.600000E-09   1.600000E-09   1.600000E-09   1.600000E-09   1.600000E-09   1.600000E-09   1.600000E-09   1.600000E-09   1.600000E-09   1.600000E-09
   1.600000E-09   1.600000E-09   1.600000E-09   1.600000E-09   1.600000E-09   1.600000E-09   1.600000E-09   1.600000E-09   1.600000E-09   1.600000E-09   1.600000E-09   1.600000E-09   1.600000E-09   1.600000E-09   1.600000E-09   1.600000E-09   1.600000E-09   1.600000E-09   1.600000E-09   1.600000E-09
   1.600000E-09   1.600000E-09   1.600000E-09   1.600000E-09   1.600000E-09   1.600000E-09   1.600000E-09   1.600000E-09   1.600000E-09   1.600000E-09   1.600000E-09   1.600000E-09   1.600000E-09   1.600000E-09   1.600000E-09   1.600000E-09   1.600000E-09   1.600000E-09   1.600000E-09   1.600000E-09
   1.600000E-09   1.600000E-09   1.600000E-09   1.600000E-09   1.600000E-09   1.600000E-09   1.600000E-09   1.600000E-09   1.600000E-09   1.600000E-09   1.600000E-09   1.600000E-09   1.600000E-09   1.600000E-09   1.600000E-09   1.600000E-09   1.600000E-09   1.600000E-09   1.600000E-09   1.600000E-09
   1.600000E-09   1.600000E-09   1.600000E-09   1.600000E-09   1.600000E-09   1.600000E-09   1.600000E-09   1.600000E-09   1.600000E-09   1.600000E-09   1.600000E-09   1.600000E-09   1.600000E-09   1.600000E-09   1.600000E-09   1.600000E-09   1.600000E-09   1.600000E-09   1.600000E-09   1.600000E-09
   1.600000E-09   1.600000E-09   1.600000E-09   1.600000E-09   1.600000E-09   1.600000E-09   1.600000E-09   1.600000E-09   1.600000E-09   1.600000E-09   1.600000E-09   1.600000E-09   1.600000E-09   1.600000E-09   1.600000E-09   1.600000E-09   1.600000E-09   1.600000E-09   1.600000E-09   1.600000E-09
   1.600000E-09   1.600000E-09   1.600000E-09   1.600000E-09   1.600000E-09   1.600000E-09   1.600000E-09   1.600000E-09   1.600000E-09   1.600000E-09   1.600000E-09   1.600000E-09   1.600000E-09   1.600000E-09   1.600000E-09   1.600000E-09   1.600000E-09   1.600000E-09   1.600000E-09   1.600000E-09
