# File generated by Flopy version 3.9.1 on 04/01/2025 at 15:56:37.
BEGIN options
END options

BEGIN griddata
  strt
    CONSTANT   10000.00000000
END griddata

