# File generated by Flopy version 3.9.1 on 04/14/2025 at 08:10:39.
BEGIN options
END options

BEGIN griddata
  strt
    CONSTANT   10000.00000000
END griddata

