# File generated by Flopy version 3.9.1 on 04/01/2025 at 15:56:37.
BEGIN options
  PRINT_OPTION  all
END options

BEGIN linear
  INNER_MAXIMUM  100
END linear

