# File generated by Flopy version 3.9.1 on 04/14/2025 at 08:10:39.
BEGIN options
  PRINT_OPTION  all
END options

BEGIN linear
  INNER_MAXIMUM  100
END linear

