# File generated by Flopy version 3.9.1 on 04/01/2025 at 21:50:08.
BEGIN options
  BUDGET  FILEOUT  ex-gwf-toth.bud
  HEAD  FILEOUT  ex-gwf-toth.hds
END options

BEGIN period  1
  SAVE  HEAD  ALL
  SAVE  BUDGET  ALL
  PRINT  HEAD  ALL
  PRINT  BUDGET  ALL
END period  1

