# File generated by Flopy version 3.9.1 on 04/06/2025 at 09:11:18.
BEGIN options
  SAVE_FLOWS
END options

BEGIN packages
  DIS6  ex-gwf-toth.dis  dis
  IC6  ex-gwf-toth.ic  ic
  NPF6  ex-gwf-toth.npf  npf
  CHD6  ex-gwf-toth.chd  chd_0
  OC6  ex-gwf-toth.oc  oc
END packages

