# File generated by Flopy version 3.9.1 on 04/06/2025 at 09:11:18.
BEGIN options
  PRINT_OPTION  all
END options

BEGIN linear
  INNER_MAXIMUM  100
END linear

