# File generated by Flopy version 3.9.1 on 04/01/2025 at 15:56:37.
BEGIN options
END options

BEGIN dimensions
  NPER  1
END dimensions

BEGIN perioddata
       1.00000000  1       1.00000000
END perioddata

