# File generated by Flopy version 3.10.0.dev3 on 06/16/2025 at 06:44:25.
BEGIN options
  SAVE_FLOWS
  NEWTON  UNDER_RELAXATION
END options

BEGIN packages
  DIS6  model_4.dis  dis
  IC6  model_4.ic  ic
  NPF6  model_4.npf  npf
  STO6  model_4.sto  sto
  RCH6  model_4.rcha  rcha_0
  DRN6  model_4.drn  river
  DRN6  model_4_0.drn  gwd
  OC6  model_4.oc  oc
END packages

