# File generated by Flopy version 3.10.0.dev3 on 06/16/2025 at 06:44:25.
BEGIN options
  auxiliary  depth
  AUXDEPTHNAME  depth
END options

BEGIN dimensions
  MAXBOUND  470
END dimensions

BEGIN period  1
  1 1 1 4.50907784E+01 1.00000000E+07 1.00000000E+00
  1 1 2 4.44795036E+01 1.00000000E+07 1.00000000E+00
  1 1 3 4.40515823E+01 1.00000000E+07 1.00000000E+00
  1 1 4 4.40232773E+01 1.00000000E+07 1.00000000E+00
  1 1 5 4.42630348E+01 1.00000000E+07 1.00000000E+00
  1 2 5 3.59725342E+01 1.00000000E+07 1.00000000E+00
  1 2 6 3.77709160E+01 1.00000000E+07 1.00000000E+00
  1 2 7 3.81005363E+01 1.00000000E+07 1.00000000E+00
  1 3 2 3.71686363E+01 1.00000000E+07 1.00000000E+00
  1 3 3 3.41413460E+01 1.00000000E+07 1.00000000E+00
  1 3 6 3.03004093E+01 1.00000000E+07 1.00000000E+00
  1 3 7 3.14533863E+01 1.00000000E+07 1.00000000E+00
  1 4 2 3.69604950E+01 1.00000000E+07 1.00000000E+00
  1 6 3 4.44784927E+01 1.00000000E+07 1.00000000E+00
  1 6 4 4.22367287E+01 1.00000000E+07 1.00000000E+00
  1 6 5 3.98661041E+01 1.00000000E+07 1.00000000E+00
  1 6 6 3.74524307E+01 1.00000000E+07 1.00000000E+00
  1 6 7 3.49919167E+01 1.00000000E+07 1.00000000E+00
  1 7 3 5.23155632E+01 1.00000000E+07 1.00000000E+00
  1 7 4 5.07687988E+01 1.00000000E+07 1.00000000E+00
  1 7 5 4.88627396E+01 1.00000000E+07 1.00000000E+00
  1 7 6 4.67224426E+01 1.00000000E+07 1.00000000E+00
  1 7 7 4.43893776E+01 1.00000000E+07 1.00000000E+00
  1 8 3 5.87888718E+01 1.00000000E+07 1.00000000E+00
  1 8 4 5.75812874E+01 1.00000000E+07 1.00000000E+00
  1 8 5 5.59619942E+01 1.00000000E+07 1.00000000E+00
  1 8 6 5.40026321E+01 1.00000000E+07 1.00000000E+00
  1 8 7 5.17244377E+01 1.00000000E+07 1.00000000E+00
  1 9 3 6.40047302E+01 1.00000000E+07 1.00000000E+00
  1 9 4 6.29761391E+01 1.00000000E+07 1.00000000E+00
  1 9 5 6.15278053E+01 1.00000000E+07 1.00000000E+00
  1 9 6 5.96864777E+01 1.00000000E+07 1.00000000E+00
  1 9 7 5.74436684E+01 1.00000000E+07 1.00000000E+00
  1 10 3 6.80432816E+01 1.00000000E+07 1.00000000E+00
  1 10 4 6.71144257E+01 1.00000000E+07 1.00000000E+00
  1 10 5 6.57788391E+01 1.00000000E+07 1.00000000E+00
  1 10 6 6.40295486E+01 1.00000000E+07 1.00000000E+00
  1 10 7 6.18290329E+01 1.00000000E+07 1.00000000E+00
  1 11 3 7.09478836E+01 1.00000000E+07 1.00000000E+00
  1 11 4 7.00851212E+01 1.00000000E+07 1.00000000E+00
  1 11 5 6.88443146E+01 1.00000000E+07 1.00000000E+00
  1 11 6 6.71961670E+01 1.00000000E+07 1.00000000E+00
  1 11 7 6.50644760E+01 1.00000000E+07 1.00000000E+00
  1 12 3 7.27365723E+01 1.00000000E+07 1.00000000E+00
  1 12 4 7.19257507E+01 1.00000000E+07 1.00000000E+00
  1 12 5 7.07864380E+01 1.00000000E+07 1.00000000E+00
  1 12 6 6.92890091E+01 1.00000000E+07 1.00000000E+00
  1 12 7 6.73220139E+01 1.00000000E+07 1.00000000E+00
  1 13 3 7.34092255E+01 1.00000000E+07 1.00000000E+00
  1 13 4 7.26264343E+01 1.00000000E+07 1.00000000E+00
  1 13 5 7.15864868E+01 1.00000000E+07 1.00000000E+00
  1 13 6 7.10102692E+01 1.00000000E+07 1.00000000E+00
END period  1

