# File generated by Flopy version 3.9.1 on 02/27/2025 at 15:39:39.
BEGIN options
  SAVE_FLOWS
END options

BEGIN packages
  DIS6  gwt_p03-mf6.dis  dis
  IC6  gwt_p03-mf6.ic  ic
  ADV6  gwt_p03-mf6.adv  adv
  DSP6  gwt_p03-mf6.dsp  dsp
  MST6  gwt_p03-mf6.mst  mst
  CNC6  gwt_p03-mf6.cnc  cnc-1
  SSM6  gwt_p03-mf6.ssm  ssm
  OC6  gwt_p03-mf6.oc  oc
END packages

