# DIS package for MODFLOW-2005 generated by Flopy 3.9.1
         1        20        40         3         4         2
  0
CONSTANT    1.000000E+00                           #delr                          
CONSTANT    1.000000E+00                           #delc                          
CONSTANT    0.000000E+00                           #model_top                     
CONSTANT   -1.000000E+00                           #botm layer 1                  
      1.000000             1  1.000000  SS
     18.000000             1  1.000000  SS
     10.000000             1  1.000000  SS
