# File generated by Flopy version 3.9.1 on 06/26/2025 at 10:48:10.
BEGIN options
END options

BEGIN dimensions
  MAXBOUND  2
END dimensions

BEGIN period  1
  1 1 1 0
  1 1 3 0
END period  1

