# File generated by Flopy version 3.9.1 on 04/11/2025 at 15:12:07.
BEGIN options
END options

BEGIN timing
  TDIS6  sfr-p01.tdis
END timing

BEGIN models
  gwf6  sfr-p01.nam  sfr-p01
END models

BEGIN exchanges
END exchanges

BEGIN solutiongroup  1
  ims6  sfr-p01.ims  sfr-p01
END solutiongroup  1

