# File generated by Flopy version 3.9.1 on 04/14/2025 at 14:36:38.
BEGIN options
END options

BEGIN griddata
  strt
    CONSTANT    1050.00000000
END griddata

