# File generated by Flopy version 3.10.0.dev3 on 06/16/2025 at 08:45:42.
BEGIN options
END options

BEGIN dimensions
  MAXBOUND  169
END dimensions

BEGIN period  1
  1 20 25 6.69276600E+01 1.34229075E+04
  1 19 25 6.76287384E+01 1.26141476E+04
  1 19 24 6.85399284E+01 6.86556974E+03
  1 18 24 6.89221706E+01 1.05603335E+04
  1 18 23 6.96840477E+01 1.63785459E+04
  1 17 23 7.17806072E+01 8.23602484E+02
  1 17 22 7.09722252E+01 1.65857496E+04
  1 17 21 7.25047474E+01 1.52161748E+04
  1 17 20 7.39152241E+01 1.54132170E+04
  1 17 19 7.58911095E+01 1.47464046E+04
  1 16 19 7.71446285E+01 8.60307912E+02
  1 16 18 7.79174767E+01 1.58037315E+04
  1 16 17 7.83503304E+01 1.60007504E+04
  1 16 16 7.96684666E+01 1.60775608E+04
  1 16 15 8.09684887E+01 1.62684078E+04
  1 16 14 8.22782803E+01 1.65261971E+04
  1 16 13 8.42766705E+01 1.72563274E+04
  1 16 12 8.65487881E+01 2.31790401E+03
  1 15 12 8.48611107E+01 1.83550800E+04
  1 15 11 8.77157822E+01 9.22123034E+03
  1 14 11 8.81208248E+01 8.72848279E+03
  1 25 25 6.69805965E+01 1.43442386E+04
  1 25 24 6.83365421E+01 1.45751554E+04
  1 25 23 6.95833321E+01 1.50021771E+04
  1 25 22 7.14188538E+01 1.52325908E+04
  1 25 21 7.32110233E+01 4.15575695E+02
  1 26 21 7.29351978E+01 1.50246598E+04
  1 26 20 7.37499981E+01 1.58774059E+04
  1 26 19 7.53572388E+01 1.61105148E+04
  1 26 18 7.73743706E+01 8.07500725E+03
  1 27 18 7.72345581E+01 8.32973934E+03
  1 27 17 7.80296040E+01 1.70653796E+04
  1 27 16 7.97872353E+01 1.46787222E+04
  1 28 16 8.02680855E+01 3.49218937E+03
  1 28 15 8.08374805E+01 1.84365859E+04
  1 28 14 8.27825260E+01 1.20600349E+04
  1 29 14 8.28897972E+01 6.30319936E+03
  1 29 13 8.35966682E+01 1.80799014E+04
  1 29 12 8.54896145E+01 1.78557719E+04
  1 29 11 8.85248680E+01 1.84111938E+03
  1 30 11 8.77461166E+01 8.36833513E+03
END period  1

