# File generated by Flopy version 3.10.0.dev3 on 06/16/2025 at 08:45:42.
BEGIN options
  auxiliary  depth
  AUXDEPTHNAME  depth
END options

BEGIN dimensions
  MAXBOUND  1919
END dimensions

BEGIN period  1
  1 8 1 6.08682327E+01 2.50000000E+06 1.00000000E+00
  1 9 1 6.04501944E+01 2.50000000E+06 1.00000000E+00
  1 9 2 5.96904383E+01 2.50000000E+06 1.00000000E+00
  1 9 3 5.80473577E+01 2.50000000E+06 1.00000000E+00
  1 10 1 5.97614412E+01 2.50000000E+06 1.00000000E+00
  1 10 2 5.90264988E+01 2.50000000E+06 1.00000000E+00
  1 10 3 5.82117548E+01 2.50000000E+06 1.00000000E+00
  1 10 4 5.73611565E+01 2.50000000E+06 1.00000000E+00
  1 10 5 5.62454559E+01 2.50000000E+06 1.00000000E+00
  1 11 1 5.87742443E+01 2.50000000E+06 1.00000000E+00
  1 11 2 5.81129856E+01 2.50000000E+06 1.00000000E+00
  1 11 3 5.73574057E+01 2.50000000E+06 1.00000000E+00
  1 11 4 5.64567375E+01 2.50000000E+06 1.00000000E+00
  1 11 5 5.53955460E+01 2.50000000E+06 1.00000000E+00
  1 11 6 5.41884756E+01 2.50000000E+06 1.00000000E+00
  1 11 7 5.31970854E+01 2.50000000E+06 1.00000000E+00
  1 11 8 5.24545689E+01 2.50000000E+06 1.00000000E+00
  1 11 9 5.12675705E+01 2.50000000E+06 1.00000000E+00
  1 11 10 5.07043724E+01 2.50000000E+06 1.00000000E+00
  1 12 1 5.74631472E+01 2.50000000E+06 1.00000000E+00
  1 12 2 5.68847218E+01 2.50000000E+06 1.00000000E+00
  1 12 3 5.62183514E+01 2.50000000E+06 1.00000000E+00
  1 12 4 5.54524183E+01 2.50000000E+06 1.00000000E+00
  1 12 5 5.45871811E+01 2.50000000E+06 1.00000000E+00
  1 12 6 5.36518688E+01 2.50000000E+06 1.00000000E+00
  1 12 7 5.27366142E+01 2.50000000E+06 1.00000000E+00
  1 12 8 5.18279972E+01 2.50000000E+06 1.00000000E+00
  1 12 9 5.08664026E+01 2.50000000E+06 1.00000000E+00
  1 12 10 4.98828325E+01 2.50000000E+06 1.00000000E+00
  1 12 11 4.88512259E+01 2.50000000E+06 1.00000000E+00
  1 12 12 4.72194633E+01 2.50000000E+06 1.00000000E+00
  1 13 1 5.58163519E+01 2.50000000E+06 1.00000000E+00
  1 13 2 5.53311529E+01 2.50000000E+06 1.00000000E+00
  1 13 3 5.47819662E+01 2.50000000E+06 1.00000000E+00
  1 13 4 5.41517782E+01 2.50000000E+06 1.00000000E+00
  1 13 5 5.34409847E+01 2.50000000E+06 1.00000000E+00
  1 13 6 5.26547489E+01 2.50000000E+06 1.00000000E+00
  1 13 7 5.18356733E+01 2.50000000E+06 1.00000000E+00
  1 13 8 5.09696407E+01 2.50000000E+06 1.00000000E+00
  1 13 9 5.00484934E+01 2.50000000E+06 1.00000000E+00
  1 13 10 4.90551462E+01 2.50000000E+06 1.00000000E+00
  1 13 11 4.79664307E+01 2.50000000E+06 1.00000000E+00
  1 13 12 4.68328552E+01 2.50000000E+06 1.00000000E+00
  1 13 13 4.53474541E+01 2.50000000E+06 1.00000000E+00
  1 14 1 5.38062048E+01 2.50000000E+06 1.00000000E+00
  1 14 2 5.34387474E+01 2.50000000E+06 1.00000000E+00
  1 14 3 5.30038033E+01 2.50000000E+06 1.00000000E+00
  1 14 4 5.25088053E+01 2.50000000E+06 1.00000000E+00
  1 14 5 5.19359951E+01 2.50000000E+06 1.00000000E+00
  1 14 6 5.12806292E+01 2.50000000E+06 1.00000000E+00
  1 14 7 5.05523863E+01 2.50000000E+06 1.00000000E+00
  1 14 8 4.97515755E+01 2.50000000E+06 1.00000000E+00
  1 14 9 4.88674364E+01 2.50000000E+06 1.00000000E+00
  1 14 10 4.78895845E+01 2.50000000E+06 1.00000000E+00
  1 14 11 4.68070726E+01 2.50000000E+06 1.00000000E+00
  1 14 12 4.56015081E+01 2.50000000E+06 1.00000000E+00
  1 14 13 4.41595736E+01 2.50000000E+06 1.00000000E+00
  1 14 14 4.27211933E+01 2.50000000E+06 1.00000000E+00
  1 15 1 5.14030132E+01 2.50000000E+06 1.00000000E+00
  1 15 2 5.11549463E+01 2.50000000E+06 1.00000000E+00
  1 15 3 5.08766785E+01 2.50000000E+06 1.00000000E+00
  1 15 4 5.05140629E+01 2.50000000E+06 1.00000000E+00
  1 15 5 5.00797739E+01 2.50000000E+06 1.00000000E+00
  1 15 6 4.95456038E+01 2.50000000E+06 1.00000000E+00
  1 15 7 4.89197016E+01 2.50000000E+06 1.00000000E+00
  1 15 8 4.81811562E+01 2.50000000E+06 1.00000000E+00
  1 15 9 4.73420458E+01 2.50000000E+06 1.00000000E+00
  1 15 10 4.63899183E+01 2.50000000E+06 1.00000000E+00
  1 15 11 4.53200531E+01 2.50000000E+06 1.00000000E+00
  1 15 12 4.41151590E+01 2.50000000E+06 1.00000000E+00
  1 15 13 4.27559357E+01 2.50000000E+06 1.00000000E+00
  1 15 14 4.12330532E+01 2.50000000E+06 1.00000000E+00
  1 15 15 3.96349621E+01 2.50000000E+06 1.00000000E+00
  1 15 16 3.79813690E+01 2.50000000E+06 1.00000000E+00
  1 16 1 4.85625010E+01 2.50000000E+06 1.00000000E+00
  1 16 2 4.84736414E+01 2.50000000E+06 1.00000000E+00
  1 16 3 4.83504419E+01 2.50000000E+06 1.00000000E+00
  1 16 4 4.81732988E+01 2.50000000E+06 1.00000000E+00
  1 16 5 4.78821840E+01 2.50000000E+06 1.00000000E+00
  1 16 6 4.74735136E+01 2.50000000E+06 1.00000000E+00
  1 16 7 4.69415741E+01 2.50000000E+06 1.00000000E+00
  1 16 8 4.62782640E+01 2.50000000E+06 1.00000000E+00
  1 16 9 4.54814978E+01 2.50000000E+06 1.00000000E+00
  1 16 10 4.45600195E+01 2.50000000E+06 1.00000000E+00
  1 16 11 4.35096064E+01 2.50000000E+06 1.00000000E+00
  1 16 12 4.23273172E+01 2.50000000E+06 1.00000000E+00
  1 16 13 4.10048056E+01 2.50000000E+06 1.00000000E+00
  1 16 14 3.95470161E+01 2.50000000E+06 1.00000000E+00
  1 16 15 3.79477148E+01 2.50000000E+06 1.00000000E+00
  1 16 16 3.60858583E+01 2.50000000E+06 1.00000000E+00
  1 16 17 3.42011435E+01 2.50000000E+06 1.00000000E+00
  1 17 1 4.52305832E+01 2.50000000E+06 1.00000000E+00
  1 17 2 4.53487616E+01 2.50000000E+06 1.00000000E+00
  1 17 3 4.54402933E+01 2.50000000E+06 1.00000000E+00
  1 17 4 4.54595966E+01 2.50000000E+06 1.00000000E+00
  1 17 5 4.53477812E+01 2.50000000E+06 1.00000000E+00
  1 17 6 4.50746889E+01 2.50000000E+06 1.00000000E+00
  1 17 7 4.46419525E+01 2.50000000E+06 1.00000000E+00
  1 17 8 4.40415411E+01 2.50000000E+06 1.00000000E+00
  1 17 9 4.32912102E+01 2.50000000E+06 1.00000000E+00
  1 17 10 4.23950338E+01 2.50000000E+06 1.00000000E+00
  1 17 11 4.13628674E+01 2.50000000E+06 1.00000000E+00
  1 17 12 4.02029371E+01 2.50000000E+06 1.00000000E+00
  1 17 13 3.89192047E+01 2.50000000E+06 1.00000000E+00
  1 17 14 3.75084629E+01 2.50000000E+06 1.00000000E+00
  1 17 15 3.59783802E+01 2.50000000E+06 1.00000000E+00
  1 17 16 3.43079948E+01 2.50000000E+06 1.00000000E+00
  1 17 17 3.25251503E+01 2.50000000E+06 1.00000000E+00
  1 17 18 3.04789882E+01 2.50000000E+06 1.00000000E+00
  1 18 1 4.13247690E+01 2.50000000E+06 1.00000000E+00
  1 18 2 4.17431993E+01 2.50000000E+06 1.00000000E+00
  1 18 3 4.21133795E+01 2.50000000E+06 1.00000000E+00
  1 18 4 4.24037790E+01 2.50000000E+06 1.00000000E+00
  1 18 5 4.24805441E+01 2.50000000E+06 1.00000000E+00
  1 18 6 4.23688192E+01 2.50000000E+06 1.00000000E+00
  1 18 7 4.20281487E+01 2.50000000E+06 1.00000000E+00
  1 18 8 4.14917192E+01 2.50000000E+06 1.00000000E+00
  1 18 9 4.07692089E+01 2.50000000E+06 1.00000000E+00
  1 18 10 3.98846893E+01 2.50000000E+06 1.00000000E+00
  1 18 11 3.88599634E+01 2.50000000E+06 1.00000000E+00
  1 18 12 3.77130661E+01 2.50000000E+06 1.00000000E+00
  1 18 13 3.64552927E+01 2.50000000E+06 1.00000000E+00
  1 18 14 3.50980473E+01 2.50000000E+06 1.00000000E+00
  1 18 15 3.36318121E+01 2.50000000E+06 1.00000000E+00
  1 18 16 3.20684805E+01 2.50000000E+06 1.00000000E+00
  1 18 17 3.03554502E+01 2.50000000E+06 1.00000000E+00
  1 18 18 2.84872317E+01 2.50000000E+06 1.00000000E+00
  1 18 19 2.65823083E+01 2.50000000E+06 1.00000000E+00
  1 18 20 2.32495899E+01 2.50000000E+06 1.00000000E+00
  1 19 1 3.67743807E+01 2.50000000E+06 1.00000000E+00
  1 19 2 3.76057386E+01 2.50000000E+06 1.00000000E+00
  1 19 3 3.84161615E+01 2.50000000E+06 1.00000000E+00
  1 19 4 3.90061970E+01 2.50000000E+06 1.00000000E+00
  1 19 5 3.93511410E+01 2.50000000E+06 1.00000000E+00
  1 19 6 3.93763027E+01 2.50000000E+06 1.00000000E+00
  1 19 7 3.91357574E+01 2.50000000E+06 1.00000000E+00
  1 19 8 3.86343641E+01 2.50000000E+06 1.00000000E+00
  1 19 9 3.79127264E+01 2.50000000E+06 1.00000000E+00
  1 19 10 3.70145016E+01 2.50000000E+06 1.00000000E+00
  1 19 11 3.59713879E+01 2.50000000E+06 1.00000000E+00
  1 19 12 3.48207788E+01 2.50000000E+06 1.00000000E+00
  1 19 13 3.35791779E+01 2.50000000E+06 1.00000000E+00
  1 19 14 3.22606707E+01 2.50000000E+06 1.00000000E+00
  1 19 15 3.08696079E+01 2.50000000E+06 1.00000000E+00
  1 19 16 2.94121523E+01 2.50000000E+06 1.00000000E+00
  1 19 17 2.78756781E+01 2.50000000E+06 1.00000000E+00
  1 19 18 2.62214704E+01 2.50000000E+06 1.00000000E+00
  1 19 19 2.44554720E+01 2.50000000E+06 1.00000000E+00
  1 19 20 2.25676932E+01 2.50000000E+06 1.00000000E+00
  1 19 21 2.14415640E+01 2.50000000E+06 1.00000000E+00
  1 20 3 3.43089161E+01 2.50000000E+06 1.00000000E+00
  1 20 4 3.54084911E+01 2.50000000E+06 1.00000000E+00
  1 20 5 3.59829826E+01 2.50000000E+06 1.00000000E+00
  1 20 6 3.61612415E+01 2.50000000E+06 1.00000000E+00
  1 20 7 3.59829226E+01 2.50000000E+06 1.00000000E+00
  1 20 8 3.54825735E+01 2.50000000E+06 1.00000000E+00
  1 20 9 3.47212601E+01 2.50000000E+06 1.00000000E+00
  1 20 10 3.37522602E+01 2.50000000E+06 1.00000000E+00
  1 20 11 3.26591787E+01 2.50000000E+06 1.00000000E+00
  1 20 12 3.14767900E+01 2.50000000E+06 1.00000000E+00
  1 20 13 3.02332888E+01 2.50000000E+06 1.00000000E+00
  1 20 14 2.89417934E+01 2.50000000E+06 1.00000000E+00
  1 20 15 2.76167545E+01 2.50000000E+06 1.00000000E+00
  1 20 16 2.62825718E+01 2.50000000E+06 1.00000000E+00
  1 20 17 2.49117990E+01 2.50000000E+06 1.00000000E+00
  1 20 18 2.35312171E+01 2.50000000E+06 1.00000000E+00
  1 20 19 2.20532565E+01 2.50000000E+06 1.00000000E+00
  1 20 20 2.05323329E+01 2.50000000E+06 1.00000000E+00
  1 20 21 1.89570704E+01 2.50000000E+06 1.00000000E+00
  1 20 22 1.73028636E+01 2.50000000E+06 1.00000000E+00
  1 20 23 1.65258846E+01 2.50000000E+06 1.00000000E+00
  1 21 1 3.19640784E+01 2.50000000E+06 1.00000000E+00
  1 21 4 3.17052789E+01 2.50000000E+06 1.00000000E+00
  1 21 5 3.24741745E+01 2.50000000E+06 1.00000000E+00
  1 21 6 3.27706690E+01 2.50000000E+06 1.00000000E+00
  1 21 7 3.26204224E+01 2.50000000E+06 1.00000000E+00
  1 21 8 3.20615377E+01 2.50000000E+06 1.00000000E+00
  1 21 9 3.11667657E+01 2.50000000E+06 1.00000000E+00
  1 21 10 3.00628605E+01 2.50000000E+06 1.00000000E+00
  1 21 11 2.88624215E+01 2.50000000E+06 1.00000000E+00
  1 21 12 2.76196804E+01 2.50000000E+06 1.00000000E+00
  1 21 13 2.63485112E+01 2.50000000E+06 1.00000000E+00
  1 21 14 2.50648127E+01 2.50000000E+06 1.00000000E+00
  1 21 15 2.37908316E+01 2.50000000E+06 1.00000000E+00
  1 21 16 2.25611010E+01 2.50000000E+06 1.00000000E+00
  1 21 17 2.14091797E+01 2.50000000E+06 1.00000000E+00
  1 21 18 2.02844071E+01 2.50000000E+06 1.00000000E+00
  1 21 19 1.91752043E+01 2.50000000E+06 1.00000000E+00
  1 21 20 1.80004573E+01 2.50000000E+06 1.00000000E+00
  1 21 21 1.68736181E+01 2.50000000E+06 1.00000000E+00
  1 21 22 1.57561550E+01 2.50000000E+06 1.00000000E+00
  1 21 23 1.49691067E+01 2.50000000E+06 1.00000000E+00
  1 21 24 1.49960032E+01 2.50000000E+06 1.00000000E+00
  1 22 1 3.21360998E+01 2.50000000E+06 1.00000000E+00
  1 22 2 3.05625854E+01 2.50000000E+06 1.00000000E+00
  1 22 5 2.88931503E+01 2.50000000E+06 1.00000000E+00
  1 22 6 2.92707548E+01 2.50000000E+06 1.00000000E+00
  1 22 7 2.91090622E+01 2.50000000E+06 1.00000000E+00
  1 22 8 2.84156399E+01 2.50000000E+06 1.00000000E+00
  1 22 9 2.72646680E+01 2.50000000E+06 1.00000000E+00
  1 22 10 2.58433485E+01 2.50000000E+06 1.00000000E+00
  1 22 11 2.44842010E+01 2.50000000E+06 1.00000000E+00
  1 22 12 2.31574402E+01 2.50000000E+06 1.00000000E+00
  1 22 13 2.18418131E+01 2.50000000E+06 1.00000000E+00
  1 22 14 2.05350566E+01 2.50000000E+06 1.00000000E+00
  1 22 15 1.92681346E+01 2.50000000E+06 1.00000000E+00
  1 22 16 1.81261821E+01 2.50000000E+06 1.00000000E+00
  1 22 17 1.72391458E+01 2.50000000E+06 1.00000000E+00
  1 22 18 1.64673777E+01 2.50000000E+06 1.00000000E+00
  1 22 19 1.56699033E+01 2.50000000E+06 1.00000000E+00
  1 22 20 1.48874850E+01 2.50000000E+06 1.00000000E+00
  1 22 21 1.41255186E+01 2.50000000E+06 1.00000000E+00
  1 22 22 1.34454343E+01 2.50000000E+06 1.00000000E+00
  1 22 23 1.29933889E+01 2.50000000E+06 1.00000000E+00
  1 22 24 1.26907024E+01 2.50000000E+06 1.00000000E+00
  1 23 1 3.18934999E+01 2.50000000E+06 1.00000000E+00
  1 23 2 3.04839206E+01 2.50000000E+06 1.00000000E+00
  1 23 3 2.90084553E+01 2.50000000E+06 1.00000000E+00
  1 23 7 2.55669246E+01 2.50000000E+06 1.00000000E+00
  1 23 8 2.46088042E+01 2.50000000E+06 1.00000000E+00
  1 23 9 2.30661755E+01 2.50000000E+06 1.00000000E+00
  1 23 18 1.19134507E+01 2.50000000E+06 1.00000000E+00
  1 23 19 1.15687368E+01 2.50000000E+06 1.00000000E+00
  1 23 20 1.11114349E+01 2.50000000E+06 1.00000000E+00
  1 23 21 1.06953473E+01 2.50000000E+06 1.00000000E+00
  1 23 22 1.02585278E+01 2.50000000E+06 1.00000000E+00
  1 23 23 9.93094683E+00 2.50000000E+06 1.00000000E+00
  1 23 24 1.02505007E+01 2.50000000E+06 1.00000000E+00
  1 24 11 2.16421008E+01 2.50000000E+06 1.00000000E+00
  1 24 12 2.04538937E+01 2.50000000E+06 1.00000000E+00
  1 24 13 1.90793295E+01 2.50000000E+06 1.00000000E+00
  1 24 14 1.75981879E+01 2.50000000E+06 1.00000000E+00
  1 24 15 1.59462247E+01 2.50000000E+06 1.00000000E+00
  1 24 16 1.37991161E+01 2.50000000E+06 1.00000000E+00
  1 24 21 6.52588534E+00 2.50000000E+06 1.00000000E+00
  1 24 22 6.32639050E+00 2.50000000E+06 1.00000000E+00
  1 24 23 5.82729137E+00 2.50000000E+06 1.00000000E+00
  1 24 24 5.26902580E+00 2.50000000E+06 1.00000000E+00
  1 25 1 3.91223812E+01 2.50000000E+06 1.00000000E+00
  1 25 2 3.78068743E+01 2.50000000E+06 1.00000000E+00
  1 25 3 3.65349884E+01 2.50000000E+06 1.00000000E+00
  1 25 4 3.52720089E+01 2.50000000E+06 1.00000000E+00
  1 25 5 3.40071211E+01 2.50000000E+06 1.00000000E+00
  1 25 6 3.27322063E+01 2.50000000E+06 1.00000000E+00
  1 25 7 3.14631424E+01 2.50000000E+06 1.00000000E+00
  1 25 8 3.02113609E+01 2.50000000E+06 1.00000000E+00
  1 25 9 2.90443587E+01 2.50000000E+06 1.00000000E+00
  1 25 10 2.80793114E+01 2.50000000E+06 1.00000000E+00
  1 25 11 2.70904756E+01 2.50000000E+06 1.00000000E+00
  1 25 12 2.58838735E+01 2.50000000E+06 1.00000000E+00
  1 25 13 2.44642529E+01 2.50000000E+06 1.00000000E+00
  1 25 14 2.28803782E+01 2.50000000E+06 1.00000000E+00
  1 25 15 2.10869608E+01 2.50000000E+06 1.00000000E+00
  1 25 16 1.89897132E+01 2.50000000E+06 1.00000000E+00
  1 25 17 1.66153729E+01 2.50000000E+06 1.00000000E+00
  1 25 18 1.40032270E+01 2.50000000E+06 1.00000000E+00
  1 25 19 1.13767109E+01 2.50000000E+06 1.00000000E+00
  1 26 1 4.39682770E+01 2.50000000E+06 1.00000000E+00
  1 26 2 4.28481760E+01 2.50000000E+06 1.00000000E+00
  1 26 3 4.16964521E+01 2.50000000E+06 1.00000000E+00
  1 26 4 4.05312719E+01 2.50000000E+06 1.00000000E+00
  1 26 5 3.93416443E+01 2.50000000E+06 1.00000000E+00
  1 26 6 3.81353502E+01 2.50000000E+06 1.00000000E+00
  1 26 7 3.69132509E+01 2.50000000E+06 1.00000000E+00
  1 26 8 3.56964483E+01 2.50000000E+06 1.00000000E+00
  1 26 9 3.45013552E+01 2.50000000E+06 1.00000000E+00
  1 26 10 3.33379974E+01 2.50000000E+06 1.00000000E+00
  1 26 11 3.21321058E+01 2.50000000E+06 1.00000000E+00
  1 26 12 3.07908859E+01 2.50000000E+06 1.00000000E+00
  1 26 13 2.92948313E+01 2.50000000E+06 1.00000000E+00
  1 26 14 2.76370897E+01 2.50000000E+06 1.00000000E+00
  1 26 15 2.58023524E+01 2.50000000E+06 1.00000000E+00
  1 26 16 2.37710943E+01 2.50000000E+06 1.00000000E+00
  1 26 17 2.15555902E+01 2.50000000E+06 1.00000000E+00
  1 26 18 1.92095175E+01 2.50000000E+06 1.00000000E+00
  1 26 19 1.67585232E+01 2.50000000E+06 1.00000000E+00
  1 26 20 1.42853394E+01 2.50000000E+06 1.00000000E+00
  1 26 21 1.19695785E+01 2.50000000E+06 1.00000000E+00
  1 26 22 1.03140242E+01 2.50000000E+06 1.00000000E+00
  1 26 23 9.39466739E+00 2.50000000E+06 1.00000000E+00
  1 26 24 9.94158077E+00 2.50000000E+06 1.00000000E+00
  1 27 1 4.82838345E+01 2.50000000E+06 1.00000000E+00
  1 27 2 4.73023176E+01 2.50000000E+06 1.00000000E+00
  1 27 3 4.62649956E+01 2.50000000E+06 1.00000000E+00
  1 27 4 4.51860933E+01 2.50000000E+06 1.00000000E+00
  1 27 5 4.40661049E+01 2.50000000E+06 1.00000000E+00
  1 27 6 4.29076509E+01 2.50000000E+06 1.00000000E+00
  1 27 7 4.17183933E+01 2.50000000E+06 1.00000000E+00
  1 27 8 4.05035219E+01 2.50000000E+06 1.00000000E+00
  1 27 9 3.92652531E+01 2.50000000E+06 1.00000000E+00
  1 27 10 3.79952631E+01 2.50000000E+06 1.00000000E+00
  1 27 11 3.66500626E+01 2.50000000E+06 1.00000000E+00
  1 27 12 3.52061243E+01 2.50000000E+06 1.00000000E+00
  1 27 13 3.36279325E+01 2.50000000E+06 1.00000000E+00
  1 27 14 3.19108801E+01 2.50000000E+06 1.00000000E+00
  1 27 15 3.00463099E+01 2.50000000E+06 1.00000000E+00
  1 27 16 2.80380526E+01 2.50000000E+06 1.00000000E+00
  1 27 17 2.59097977E+01 2.50000000E+06 1.00000000E+00
  1 27 18 2.36959982E+01 2.50000000E+06 1.00000000E+00
  1 27 19 2.14556956E+01 2.50000000E+06 1.00000000E+00
  1 27 20 1.92771988E+01 2.50000000E+06 1.00000000E+00
  1 27 21 1.73388271E+01 2.50000000E+06 1.00000000E+00
  1 27 22 1.58641081E+01 2.50000000E+06 1.00000000E+00
  1 27 23 1.50506587E+01 2.50000000E+06 1.00000000E+00
  1 27 24 1.44786510E+01 2.50000000E+06 1.00000000E+00
  1 28 1 5.21300249E+01 2.50000000E+06 1.00000000E+00
  1 28 2 5.12672024E+01 2.50000000E+06 1.00000000E+00
  1 28 3 5.03263416E+01 2.50000000E+06 1.00000000E+00
  1 28 4 4.93173647E+01 2.50000000E+06 1.00000000E+00
  1 28 5 4.82510157E+01 2.50000000E+06 1.00000000E+00
  1 28 6 4.71331568E+01 2.50000000E+06 1.00000000E+00
  1 28 7 4.59608755E+01 2.50000000E+06 1.00000000E+00
  1 28 8 4.47384872E+01 2.50000000E+06 1.00000000E+00
  1 28 9 4.34606199E+01 2.50000000E+06 1.00000000E+00
  1 28 10 4.21191359E+01 2.50000000E+06 1.00000000E+00
  1 28 11 4.06930742E+01 2.50000000E+06 1.00000000E+00
  1 28 12 3.91540222E+01 2.50000000E+06 1.00000000E+00
  1 28 13 3.75001574E+01 2.50000000E+06 1.00000000E+00
  1 28 14 3.57187014E+01 2.50000000E+06 1.00000000E+00
  1 28 15 3.38123102E+01 2.50000000E+06 1.00000000E+00
  1 28 16 3.17934499E+01 2.50000000E+06 1.00000000E+00
  1 28 17 2.96898971E+01 2.50000000E+06 1.00000000E+00
  1 28 18 2.75385065E+01 2.50000000E+06 1.00000000E+00
  1 28 19 2.53972864E+01 2.50000000E+06 1.00000000E+00
  1 28 20 2.33426738E+01 2.50000000E+06 1.00000000E+00
  1 28 21 2.14926715E+01 2.50000000E+06 1.00000000E+00
  1 28 22 2.00154190E+01 2.50000000E+06 1.00000000E+00
  1 28 23 1.91461182E+01 2.50000000E+06 1.00000000E+00
  1 28 24 1.93749676E+01 2.50000000E+06 1.00000000E+00
  1 29 1 5.55886259E+01 2.50000000E+06 1.00000000E+00
  1 29 2 5.48037481E+01 2.50000000E+06 1.00000000E+00
  1 29 3 5.39376440E+01 2.50000000E+06 1.00000000E+00
  1 29 4 5.29876423E+01 2.50000000E+06 1.00000000E+00
  1 29 5 5.19665318E+01 2.50000000E+06 1.00000000E+00
  1 29 6 5.08744917E+01 2.50000000E+06 1.00000000E+00
  1 29 7 4.97137814E+01 2.50000000E+06 1.00000000E+00
  1 29 8 4.84816761E+01 2.50000000E+06 1.00000000E+00
  1 29 9 4.71731777E+01 2.50000000E+06 1.00000000E+00
  1 29 10 4.57781858E+01 2.50000000E+06 1.00000000E+00
  1 29 11 4.42774496E+01 2.50000000E+06 1.00000000E+00
  1 29 12 4.26706362E+01 2.50000000E+06 1.00000000E+00
  1 29 13 4.09350166E+01 2.50000000E+06 1.00000000E+00
  1 29 14 3.90795927E+01 2.50000000E+06 1.00000000E+00
  1 29 15 3.71080236E+01 2.50000000E+06 1.00000000E+00
  1 29 16 3.50437651E+01 2.50000000E+06 1.00000000E+00
  1 29 17 3.29172783E+01 2.50000000E+06 1.00000000E+00
  1 29 18 3.07627788E+01 2.50000000E+06 1.00000000E+00
  1 29 19 2.86268888E+01 2.50000000E+06 1.00000000E+00
  1 29 20 2.65640020E+01 2.50000000E+06 1.00000000E+00
  1 29 21 2.46424994E+01 2.50000000E+06 1.00000000E+00
  1 29 22 2.29617610E+01 2.50000000E+06 1.00000000E+00
  1 29 23 2.17353091E+01 2.50000000E+06 1.00000000E+00
  1 29 24 2.13693676E+01 2.50000000E+06 1.00000000E+00
  1 30 1 5.86720724E+01 2.50000000E+06 1.00000000E+00
  1 30 2 5.79556656E+01 2.50000000E+06 1.00000000E+00
  1 30 3 5.71431532E+01 2.50000000E+06 1.00000000E+00
  1 30 4 5.62417908E+01 2.50000000E+06 1.00000000E+00
  1 30 5 5.52546339E+01 2.50000000E+06 1.00000000E+00
  1 30 6 5.41852570E+01 2.50000000E+06 1.00000000E+00
  1 30 7 5.30325918E+01 2.50000000E+06 1.00000000E+00
  1 30 8 5.17914438E+01 2.50000000E+06 1.00000000E+00
  1 30 9 5.04575024E+01 2.50000000E+06 1.00000000E+00
  1 30 10 4.90169525E+01 2.50000000E+06 1.00000000E+00
  1 30 11 4.74592247E+01 2.50000000E+06 1.00000000E+00
  1 30 12 4.57763691E+01 2.50000000E+06 1.00000000E+00
  1 30 13 4.39564247E+01 2.50000000E+06 1.00000000E+00
  1 30 14 4.20062475E+01 2.50000000E+06 1.00000000E+00
  1 30 15 3.99482346E+01 2.50000000E+06 1.00000000E+00
  1 30 16 3.78023806E+01 2.50000000E+06 1.00000000E+00
  1 30 17 3.56075029E+01 2.50000000E+06 1.00000000E+00
  1 30 18 3.33906231E+01 2.50000000E+06 1.00000000E+00
  1 30 19 3.12030921E+01 2.50000000E+06 1.00000000E+00
  1 30 20 2.90724797E+01 2.50000000E+06 1.00000000E+00
  1 30 21 2.69871860E+01 2.50000000E+06 1.00000000E+00
  1 30 22 2.50432367E+01 2.50000000E+06 1.00000000E+00
  1 30 23 2.28673420E+01 2.50000000E+06 1.00000000E+00
  1 31 1 6.14221973E+01 2.50000000E+06 1.00000000E+00
  1 31 2 6.07498312E+01 2.50000000E+06 1.00000000E+00
  1 31 3 5.99809675E+01 2.50000000E+06 1.00000000E+00
  1 31 4 5.91156693E+01 2.50000000E+06 1.00000000E+00
  1 31 5 5.81596794E+01 2.50000000E+06 1.00000000E+00
  1 31 6 5.71080971E+01 2.50000000E+06 1.00000000E+00
  1 31 7 5.59620886E+01 2.50000000E+06 1.00000000E+00
  1 31 8 5.47144766E+01 2.50000000E+06 1.00000000E+00
  1 31 9 5.33581266E+01 2.50000000E+06 1.00000000E+00
  1 31 10 5.18823509E+01 2.50000000E+06 1.00000000E+00
  1 31 11 5.02719831E+01 2.50000000E+06 1.00000000E+00
  1 31 12 4.85142488E+01 2.50000000E+06 1.00000000E+00
  1 31 13 4.66043015E+01 2.50000000E+06 1.00000000E+00
  1 31 14 4.45439310E+01 2.50000000E+06 1.00000000E+00
  1 31 15 4.23545456E+01 2.50000000E+06 1.00000000E+00
  1 31 16 4.00938292E+01 2.50000000E+06 1.00000000E+00
  1 31 17 3.77812805E+01 2.50000000E+06 1.00000000E+00
  1 31 18 3.54588900E+01 2.50000000E+06 1.00000000E+00
  1 31 19 3.31770954E+01 2.50000000E+06 1.00000000E+00
  1 31 20 3.09275570E+01 2.50000000E+06 1.00000000E+00
  1 31 21 2.90231762E+01 2.50000000E+06 1.00000000E+00
  1 32 1 6.38474083E+01 2.50000000E+06 1.00000000E+00
  1 32 2 6.32133875E+01 2.50000000E+06 1.00000000E+00
  1 32 3 6.24779253E+01 2.50000000E+06 1.00000000E+00
  1 32 4 6.16444702E+01 2.50000000E+06 1.00000000E+00
  1 32 5 6.07118015E+01 2.50000000E+06 1.00000000E+00
  1 32 6 5.96777973E+01 2.50000000E+06 1.00000000E+00
  1 32 7 5.85378666E+01 2.50000000E+06 1.00000000E+00
  1 32 8 5.72862101E+01 2.50000000E+06 1.00000000E+00
  1 32 9 5.59145021E+01 2.50000000E+06 1.00000000E+00
  1 32 10 5.44084425E+01 2.50000000E+06 1.00000000E+00
  1 32 11 5.27523289E+01 2.50000000E+06 1.00000000E+00
  1 32 12 5.09257822E+01 2.50000000E+06 1.00000000E+00
  1 32 13 4.89117727E+01 2.50000000E+06 1.00000000E+00
  1 32 14 4.66925335E+01 2.50000000E+06 1.00000000E+00
  1 32 15 4.43333921E+01 2.50000000E+06 1.00000000E+00
  1 32 16 4.18926020E+01 2.50000000E+06 1.00000000E+00
  1 32 17 3.94928799E+01 2.50000000E+06 1.00000000E+00
  1 32 18 3.68923807E+01 2.50000000E+06 1.00000000E+00
  1 32 19 3.47326889E+01 2.50000000E+06 1.00000000E+00
  1 32 20 3.28168144E+01 2.50000000E+06 1.00000000E+00
  1 33 1 6.59674892E+01 2.50000000E+06 1.00000000E+00
  1 33 2 6.53627090E+01 2.50000000E+06 1.00000000E+00
  1 33 3 6.46572018E+01 2.50000000E+06 1.00000000E+00
  1 33 4 6.38481483E+01 2.50000000E+06 1.00000000E+00
  1 33 5 6.29377766E+01 2.50000000E+06 1.00000000E+00
  1 33 6 6.19194794E+01 2.50000000E+06 1.00000000E+00
  1 33 7 6.07890482E+01 2.50000000E+06 1.00000000E+00
  1 33 8 5.95373602E+01 2.50000000E+06 1.00000000E+00
  1 33 9 5.81556215E+01 2.50000000E+06 1.00000000E+00
  1 33 10 5.66303043E+01 2.50000000E+06 1.00000000E+00
  1 33 11 5.49435196E+01 2.50000000E+06 1.00000000E+00
  1 33 12 5.30656424E+01 2.50000000E+06 1.00000000E+00
  1 33 13 5.09533949E+01 2.50000000E+06 1.00000000E+00
  1 33 14 4.85351725E+01 2.50000000E+06 1.00000000E+00
  1 33 15 4.58163958E+01 2.50000000E+06 1.00000000E+00
  1 33 16 4.32185144E+01 2.50000000E+06 1.00000000E+00
  1 33 17 4.11753557E+01 2.50000000E+06 1.00000000E+00
  1 34 1 6.77899647E+01 2.50000000E+06 1.00000000E+00
  1 34 2 6.72113514E+01 2.50000000E+06 1.00000000E+00
  1 34 3 6.65293026E+01 2.50000000E+06 1.00000000E+00
  1 34 4 6.57470016E+01 2.50000000E+06 1.00000000E+00
  1 34 5 6.48586712E+01 2.50000000E+06 1.00000000E+00
  1 34 6 6.38584690E+01 2.50000000E+06 1.00000000E+00
  1 34 7 6.27383518E+01 2.50000000E+06 1.00000000E+00
  1 34 8 6.14909954E+01 2.50000000E+06 1.00000000E+00
  1 34 9 6.01068087E+01 2.50000000E+06 1.00000000E+00
  1 34 10 5.85736475E+01 2.50000000E+06 1.00000000E+00
  1 34 11 5.68755503E+01 2.50000000E+06 1.00000000E+00
  1 34 12 5.49777756E+01 2.50000000E+06 1.00000000E+00
  1 34 13 5.28043842E+01 2.50000000E+06 1.00000000E+00
  1 34 14 5.04247189E+01 2.50000000E+06 1.00000000E+00
  1 34 15 4.76241788E+01 2.50000000E+06 1.00000000E+00
  1 35 1 6.93262463E+01 2.50000000E+06 1.00000000E+00
  1 35 2 6.87674484E+01 2.50000000E+06 1.00000000E+00
  1 35 3 6.81124611E+01 2.50000000E+06 1.00000000E+00
  1 35 4 6.73532448E+01 2.50000000E+06 1.00000000E+00
  1 35 5 6.64892769E+01 2.50000000E+06 1.00000000E+00
  1 35 6 6.55093098E+01 2.50000000E+06 1.00000000E+00
  1 35 7 6.44056473E+01 2.50000000E+06 1.00000000E+00
  1 35 8 6.31663208E+01 2.50000000E+06 1.00000000E+00
  1 35 9 6.17852640E+01 2.50000000E+06 1.00000000E+00
  1 35 10 6.02521248E+01 2.50000000E+06 1.00000000E+00
  1 35 11 5.85566111E+01 2.50000000E+06 1.00000000E+00
  1 35 12 5.67918577E+01 2.50000000E+06 1.00000000E+00
  1 35 13 5.40730019E+01 2.50000000E+06 1.00000000E+00
  1 36 1 7.05784187E+01 2.50000000E+06 1.00000000E+00
  1 36 2 7.00409374E+01 2.50000000E+06 1.00000000E+00
  1 36 3 6.94084969E+01 2.50000000E+06 1.00000000E+00
  1 36 4 6.86790409E+01 2.50000000E+06 1.00000000E+00
  1 36 5 6.78428669E+01 2.50000000E+06 1.00000000E+00
  1 36 6 6.68923855E+01 2.50000000E+06 1.00000000E+00
  1 36 7 6.58068886E+01 2.50000000E+06 1.00000000E+00
  1 36 8 6.45771313E+01 2.50000000E+06 1.00000000E+00
  1 36 9 6.32057953E+01 2.50000000E+06 1.00000000E+00
  1 36 10 6.16637545E+01 2.50000000E+06 1.00000000E+00
  1 36 11 6.00437765E+01 2.50000000E+06 1.00000000E+00
  1 36 12 5.37060072E+01 2.50000000E+06 1.00000000E+00
  1 37 1 7.15502186E+01 2.50000000E+06 1.00000000E+00
  1 37 2 7.10328846E+01 2.50000000E+06 1.00000000E+00
  1 37 3 7.04267712E+01 2.50000000E+06 1.00000000E+00
  1 37 4 6.97295208E+01 2.50000000E+06 1.00000000E+00
  1 37 5 6.89318504E+01 2.50000000E+06 1.00000000E+00
  1 37 6 6.80183182E+01 2.50000000E+06 1.00000000E+00
  1 37 7 6.69636059E+01 2.50000000E+06 1.00000000E+00
  1 37 8 6.57316990E+01 2.50000000E+06 1.00000000E+00
  1 37 9 6.43869572E+01 2.50000000E+06 1.00000000E+00
  1 37 10 6.09133285E+01 2.50000000E+06 1.00000000E+00
  1 38 1 7.22403297E+01 2.50000000E+06 1.00000000E+00
  1 38 2 7.17414455E+01 2.50000000E+06 1.00000000E+00
  1 38 3 7.11650581E+01 2.50000000E+06 1.00000000E+00
  1 38 4 7.05061932E+01 2.50000000E+06 1.00000000E+00
  1 38 5 6.97485065E+01 2.50000000E+06 1.00000000E+00
  1 38 6 6.89064350E+01 2.50000000E+06 1.00000000E+00
  1 38 7 6.79030476E+01 2.50000000E+06 1.00000000E+00
  1 38 8 6.67427521E+01 2.50000000E+06 1.00000000E+00
  1 39 1 7.26455498E+01 2.50000000E+06 1.00000000E+00
  1 39 2 7.21625748E+01 2.50000000E+06 1.00000000E+00
  1 39 3 7.16145821E+01 2.50000000E+06 1.00000000E+00
  1 39 4 7.10112743E+01 2.50000000E+06 1.00000000E+00
  1 39 5 7.02704792E+01 2.50000000E+06 1.00000000E+00
  1 39 6 6.95843697E+01 2.50000000E+06 1.00000000E+00
  1 39 7 6.83435593E+01 2.50000000E+06 1.00000000E+00
  1 40 1 7.28066940E+01 2.50000000E+06 1.00000000E+00
  1 40 2 7.22341690E+01 2.50000000E+06 1.00000000E+00
  1 40 3 7.18072662E+01 2.50000000E+06 1.00000000E+00
  1 40 4 7.11642990E+01 2.50000000E+06 1.00000000E+00
  1 40 5 7.10102692E+01 2.50000000E+06 1.00000000E+00
END period  1

