# File generated by Flopy version 3.10.0.dev3 on 06/16/2025 at 08:45:42.
BEGIN options
END options

BEGIN partitions
  model_0  0
  model_1  1
  model_2  2
END partitions

