# File generated by Flopy version 3.10.0.dev3 on 06/12/2025 at 09:55:50.
BEGIN options
  BUDGET  FILEOUT  Freyberg.bud
  HEAD  FILEOUT  Freyberg.hds
  HEAD  PRINT_FORMAT  COLUMNS  10  WIDTH  15  DIGITS  6  GENERAL
END options

BEGIN period  1
  SAVE  HEAD  ALL
  SAVE  BUDGET  ALL
  PRINT  HEAD  ALL
  PRINT  BUDGET  ALL
END period  1

