# File generated by Flopy version 3.9.1 on 06/20/2025 at 15:39:40.
BEGIN options
END options

BEGIN griddata
  strt
    CONSTANT      45.00000000
END griddata

