# File generated by Flopy version 3.10.0.dev3 on 06/12/2025 at 09:55:50.
BEGIN options
END options

BEGIN dimensions
  MAXBOUND  1
END dimensions

