# File generated by Flopy version 3.10.0.dev3 on 06/12/2025 at 09:55:50.
BEGIN options
END options

BEGIN timing
  TDIS6  Freyberg.tdis
END timing

BEGIN models
  gwf6  Freyberg.nam  Freyberg
END models

BEGIN exchanges
END exchanges

BEGIN solutiongroup  1
  ims6  Freyberg.ims  Freyberg
END solutiongroup  1

