# LPF package for MODFLOW-2005 generated by Flopy 3.9.1
         0    -1E+30         0  
         0         0         0         0         0         0         0         0         0         0         0         0         0         0         0         0         0         0         0         0         0         0         0         0         0         0         0         0         0         0         0         0         0         0         0         0         0         0         0         0
         0         0         0         0         0         0         0         0         0         0         0         0         0         0         0         0         0         0         0         0         0         0         0         0         0         0         0         0         0         0         0         0         0         0         0         0         0         0         0         0
   1.000000E+00   1.000000E+00   1.000000E+00   1.000000E+00   1.000000E+00   1.000000E+00   1.000000E+00   1.000000E+00   1.000000E+00   1.000000E+00   1.000000E+00   1.000000E+00   1.000000E+00   1.000000E+00   1.000000E+00   1.000000E+00   1.000000E+00   1.000000E+00   1.000000E+00   1.000000E+00   1.000000E+00   1.000000E+00   1.000000E+00   1.000000E+00   1.000000E+00   1.000000E+00   1.000000E+00   1.000000E+00   1.000000E+00   1.000000E+00   1.000000E+00   1.000000E+00   1.000000E+00   1.000000E+00   1.000000E+00   1.000000E+00   1.000000E+00   1.000000E+00   1.000000E+00   1.000000E+00
         0         0         0         0         0         0         0         0         0         0         0         0         0         0         0         0         0         0         0         0         0         0         0         0         0         0         0         0         0         0         0         0         0         0         0         0         0         0         0         0
         0         0         0         0         0         0         0         0         0         0         0         0         0         0         0         0         0         0         0         0         0         0         0         0         0         0         0         0         0         0         0         0         0         0         0         0         0         0         0         0
INTERNAL               1 (120E15.6) -1 #hk layer 1                    
   2.073600E+01   2.073600E+01   2.073600E+01   2.073600E+01   2.073600E+01   2.073600E+01   2.073600E+01   2.073600E+01   2.073600E+01   2.073600E+01   2.073600E+01   2.073600E+01   2.073600E+01   2.073600E+01   2.073600E+01   2.073600E+01   2.073600E+01   2.073600E+01   2.073600E+01   2.073600E+01   2.073600E+01   2.073600E+01   2.073600E+01   2.073600E+01   2.073600E+01   2.073600E+01   2.073600E+01   2.073600E+01   2.073600E+01   2.073600E+01   2.073600E+01   2.073600E+01   2.073600E+01   2.073600E+01   2.073600E+01   2.073600E+01   2.073600E+01   2.073600E+01   2.073600E+01   2.073600E+01   2.073600E+01   2.073600E+01   2.073600E+01   2.073600E+01   2.073600E+01   2.073600E+01   2.073600E+01   2.073600E+01   2.073600E+01   2.073600E+01   2.073600E+01   2.073600E+01   2.073600E+01   2.073600E+01   2.073600E+01   2.073600E+01   2.073600E+01   2.073600E+01   2.073600E+01   2.073600E+01   2.073600E+01   2.073600E+01   2.073600E+01   2.073600E+01   2.073600E+01   2.073600E+01   2.073600E+01   2.073600E+01   2.073600E+01   2.073600E+01   2.073600E+01   2.073600E+01   2.073600E+01   2.073600E+01   2.073600E+01   2.073600E+01   2.073600E+01   2.073600E+01   2.073600E+01   2.073600E+01   2.073600E+01   2.073600E+01   2.073600E+01   2.073600E+01   2.073600E+01   2.073600E+01   2.073600E+01   2.073600E+01   2.073600E+01   2.073600E+01   2.073600E+01   2.073600E+01   2.073600E+01   2.073600E+01   2.073600E+01   2.073600E+01   2.073600E+01   2.073600E+01   2.073600E+01   2.073600E+01   2.073600E+01   2.073600E+01   2.073600E+01   2.073600E+01   2.073600E+01   2.073600E+01   2.073600E+01   2.073600E+01   2.073600E+01   2.073600E+01   2.073600E+01   2.073600E+01   2.073600E+01   2.073600E+01   2.073600E+01   2.073600E+01   2.073600E+01   2.073600E+01   2.073600E+01   2.073600E+01
CONSTANT    1.000000E+00                           #vka1                          
INTERNAL               1 (120E15.6) -1 #hk layer 2                    
   2.073600E+01   2.073600E+01   2.073600E+01   2.073600E+01   2.073600E+01   2.073600E+01   2.073600E+01   2.073600E+01   2.073600E+01   2.073600E+01   2.073600E+01   2.073600E+01   2.073600E+01   2.073600E+01   2.073600E+01   2.073600E+01   2.073600E+01   2.073600E+01   2.073600E+01   2.073600E+01   2.073600E+01   2.073600E+01   2.073600E+01   2.073600E+01   2.073600E+01   2.073600E+01   2.073600E+01   2.073600E+01   2.073600E+01   2.073600E+01   2.073600E+01   2.073600E+01   2.073600E+01   2.073600E+01   2.073600E+01   2.073600E+01   2.073600E+01   2.073600E+01   2.073600E+01   2.073600E+01   2.073600E+01   2.073600E+01   2.073600E+01   2.073600E+01   2.073600E+01   2.073600E+01   2.073600E+01   2.073600E+01   2.073600E+01   2.073600E+01   2.073600E+01   2.073600E+01   2.073600E+01   2.073600E+01   2.073600E+01   2.073600E+01   2.073600E+01   2.073600E+01   2.073600E+01   2.073600E+01   2.073600E+01   2.073600E+01   2.073600E+01   2.073600E+01   2.073600E+01   2.073600E+01   2.073600E+01   2.073600E+01   2.073600E+01   2.073600E+01   2.073600E+01   2.073600E+01   2.073600E+01   2.073600E+01   2.073600E+01   2.073600E+01   2.073600E+01   2.073600E+01   2.073600E+01   2.073600E+01   2.073600E+01   2.073600E+01   2.073600E+01   2.073600E+01   2.073600E+01   2.073600E+01   2.073600E+01   2.073600E+01   2.073600E+01   2.073600E+01   2.073600E+01   2.073600E+01   2.073600E+01   2.073600E+01   2.073600E+01   2.073600E+01   2.073600E+01   2.073600E+01   2.073600E+01   2.073600E+01   2.073600E+01   2.073600E+01   2.073600E+01   2.073600E+01   2.073600E+01   2.073600E+01   2.073600E+01   2.073600E+01   2.073600E+01   2.073600E+01   2.073600E+01   2.073600E+01   2.073600E+01   2.073600E+01   2.073600E+01   2.073600E+01   2.073600E+01   2.073600E+01   2.073600E+01   2.073600E+01
CONSTANT    1.000000E+00                           #vka2                          
INTERNAL               1 (120E15.6) -1 #hk layer 3                    
   2.073600E+01   2.073600E+01   2.073600E+01   2.073600E+01   2.073600E+01   2.073600E+01   2.073600E+01   2.073600E+01   2.073600E+01   2.073600E+01   2.073600E+01   2.073600E+01   2.073600E+01   2.073600E+01   2.073600E+01   2.073600E+01   2.073600E+01   2.073600E+01   2.073600E+01   2.073600E+01   2.073600E+01   2.073600E+01   2.073600E+01   2.073600E+01   2.073600E+01   2.073600E+01   2.073600E+01   2.073600E+01   2.073600E+01   2.073600E+01   2.073600E+01   2.073600E+01   2.073600E+01   2.073600E+01   2.073600E+01   2.073600E+01   2.073600E+01   2.073600E+01   2.073600E+01   2.073600E+01   2.073600E+01   2.073600E+01   2.073600E+01   2.073600E+01   2.073600E+01   2.073600E+01   2.073600E+01   2.073600E+01   2.073600E+01   2.073600E+01   2.073600E+01   2.073600E+01   2.073600E+01   2.073600E+01   2.073600E+01   2.073600E+01   2.073600E+01   2.073600E+01   2.073600E+01   2.073600E+01   2.073600E+01   2.073600E+01   2.073600E+01   2.073600E+01   2.073600E+01   2.073600E+01   2.073600E+01   2.073600E+01   2.073600E+01   2.073600E+01   2.073600E+01   2.073600E+01   2.073600E+01   2.073600E+01   2.073600E+01   2.073600E+01   2.073600E+01   2.073600E+01   2.073600E+01   2.073600E+01   2.073600E+01   2.073600E+01   2.073600E+01   2.073600E+01   2.073600E+01   2.073600E+01   2.073600E+01   2.073600E+01   2.073600E+01   2.073600E+01   2.073600E+01   2.073600E+01   2.073600E+01   2.073600E+01   2.073600E+01   2.073600E+01   2.073600E+01   2.073600E+01   2.073600E+01   2.073600E+01   2.073600E+01   2.073600E+01   2.073600E+01   2.073600E+01   2.073600E+01   2.073600E+01   2.073600E+01   2.073600E+01   2.073600E+01   2.073600E+01   2.073600E+01   2.073600E+01   2.073600E+01   2.073600E+01   2.073600E+01   2.073600E+01   2.073600E+01   2.073600E+01   2.073600E+01   2.073600E+01
CONSTANT    1.000000E+00                           #vka3                          
INTERNAL               1 (120E15.6) -1 #hk layer 4                    
   2.073600E+01   2.073600E+01   2.073600E+01   2.073600E+01   2.073600E+01   2.073600E+01   2.073600E+01   2.073600E+01   2.073600E+01   2.073600E+01   2.073600E+01   2.073600E+01   2.073600E+01   2.073600E+01   2.073600E+01   2.073600E+01   2.073600E+01   2.073600E+01   2.073600E+01   2.073600E+01   2.073600E+01   2.073600E+01   2.073600E+01   2.073600E+01   2.073600E+01   2.073600E+01   2.073600E+01   2.073600E+01   2.073600E+01   2.073600E+01   2.073600E+01   2.073600E+01   2.073600E+01   2.073600E+01   2.073600E+01   2.073600E+01   2.073600E+01   2.073600E+01   2.073600E+01   2.073600E+01   2.073600E+01   2.073600E+01   2.073600E+01   2.073600E+01   2.073600E+01   2.073600E+01   2.073600E+01   2.073600E+01   2.073600E+01   2.073600E+01   2.073600E+01   2.073600E+01   2.073600E+01   2.073600E+01   2.073600E+01   2.073600E+01   2.073600E+01   2.073600E+01   2.073600E+01   2.073600E+01   2.073600E+01   2.073600E+01   2.073600E+01   2.073600E+01   2.073600E+01   2.073600E+01   2.073600E+01   2.073600E+01   2.073600E+01   2.073600E+01   2.073600E+01   2.073600E+01   2.073600E+01   2.073600E+01   2.073600E+01   2.073600E+01   2.073600E+01   2.073600E+01   2.073600E+01   2.073600E+01   2.073600E+01   2.073600E+01   2.073600E+01   2.073600E+01   2.073600E+01   2.073600E+01   2.073600E+01   2.073600E+01   2.073600E+01   2.073600E+01   2.073600E+01   2.073600E+01   2.073600E+01   2.073600E+01   2.073600E+01   2.073600E+01   2.073600E+01   2.073600E+01   2.073600E+01   2.073600E+01   2.073600E+01   2.073600E+01   2.073600E+01   2.073600E+01   2.073600E+01   2.073600E+01   2.073600E+01   2.073600E+01   2.073600E+01   2.073600E+01   2.073600E+01   2.073600E+01   2.073600E+01   2.073600E+01   2.073600E+01   2.073600E+01   2.073600E+01   2.073600E+01   2.073600E+01   2.073600E+01
CONSTANT    1.000000E+00                           #vka4                          
INTERNAL               1 (120E15.6) -1 #hk layer 5                    
   2.073600E+01   2.073600E+01   2.073600E+01   2.073600E+01   2.073600E+01   2.073600E+01   2.073600E+01   2.073600E+01   2.073600E+01   2.073600E+01   2.073600E+01   2.073600E+01   2.073600E+01   2.073600E+01   2.073600E+01   2.073600E+01   2.073600E+01   2.073600E+01   2.073600E+01   2.073600E+01   2.073600E+01   2.073600E+01   2.073600E+01   2.073600E+01   2.073600E+01   2.073600E+01   2.073600E+01   2.073600E+01   2.073600E+01   2.073600E+01   2.073600E+01   2.073600E+01   2.073600E+01   2.073600E+01   2.073600E+01   2.073600E+01   2.073600E+01   2.073600E+01   2.073600E+01   2.073600E+01   2.073600E+01   2.073600E+01   2.073600E+01   2.073600E+01   2.073600E+01   2.073600E+01   2.073600E+01   2.073600E+01   2.073600E+01   2.073600E+01   2.073600E+01   2.073600E+01   2.073600E+01   2.073600E+01   2.073600E+01   2.073600E+01   2.073600E+01   2.073600E+01   2.073600E+01   2.073600E+01   2.073600E+01   2.073600E+01   2.073600E+01   2.073600E+01   2.073600E+01   2.073600E+01   2.073600E+01   2.073600E+01   2.073600E+01   2.073600E+01   2.073600E+01   2.073600E+01   2.073600E+01   2.073600E+01   2.073600E+01   2.073600E+01   2.073600E+01   2.073600E+01   2.073600E+01   2.073600E+01   2.073600E+01   2.073600E+01   2.073600E+01   2.073600E+01   2.073600E+01   2.073600E+01   2.073600E+01   2.073600E+01   2.073600E+01   2.073600E+01   2.073600E+01   2.073600E+01   2.073600E+01   2.073600E+01   2.073600E+01   2.073600E+01   2.073600E+01   2.073600E+01   2.073600E+01   2.073600E+01   2.073600E+01   2.073600E+01   2.073600E+01   2.073600E+01   2.073600E+01   2.073600E+01   2.073600E+01   2.073600E+01   2.073600E+01   2.073600E+01   2.073600E+01   2.073600E+01   2.073600E+01   2.073600E+01   2.073600E+01   2.073600E+01   2.073600E+01   2.073600E+01   2.073600E+01   2.073600E+01
CONSTANT    1.000000E+00                           #vka5                          
INTERNAL               1 (120E15.6) -1 #hk layer 6                    
   2.073600E+01   2.073600E+01   2.073600E+01   2.073600E+01   2.073600E+01   2.073600E+01   2.073600E+01   2.073600E+01   2.073600E+01   2.073600E+01   2.073600E+01   2.073600E+01   2.073600E+01   2.073600E+01   2.073600E+01   2.073600E+01   2.073600E+01   2.073600E+01   2.073600E+01   2.073600E+01   2.073600E+01   2.073600E+01   2.073600E+01   2.073600E+01   2.073600E+01   2.073600E+01   2.073600E+01   2.073600E+01   2.073600E+01   2.073600E+01   2.073600E+01   2.073600E+01   2.073600E+01   2.073600E+01   2.073600E+01   2.073600E+01   2.073600E+01   2.073600E+01   2.073600E+01   2.073600E+01   2.073600E+01   2.073600E+01   2.073600E+01   2.073600E+01   2.073600E+01   2.073600E+01   2.073600E+01   2.073600E+01   2.073600E+01   2.073600E+01   2.073600E+01   2.073600E+01   2.073600E+01   2.073600E+01   2.073600E+01   2.073600E+01   2.073600E+01   2.073600E+01   2.073600E+01   2.073600E+01   2.073600E+01   2.073600E+01   2.073600E+01   2.073600E+01   2.073600E+01   2.073600E+01   2.073600E+01   2.073600E+01   2.073600E+01   2.073600E+01   2.073600E+01   2.073600E+01   2.073600E+01   2.073600E+01   2.073600E+01   2.073600E+01   2.073600E+01   2.073600E+01   2.073600E+01   2.073600E+01   2.073600E+01   2.073600E+01   2.073600E+01   2.073600E+01   2.073600E+01   2.073600E+01   2.073600E+01   2.073600E+01   2.073600E+01   2.073600E+01   2.073600E+01   2.073600E+01   2.073600E+01   2.073600E+01   2.073600E+01   2.073600E+01   2.073600E+01   2.073600E+01   2.073600E+01   2.073600E+01   2.073600E+01   2.073600E+01   2.073600E+01   2.073600E+01   2.073600E+01   2.073600E+01   2.073600E+01   2.073600E+01   2.073600E+01   2.073600E+01   2.073600E+01   2.073600E+01   2.073600E+01   2.073600E+01   2.073600E+01   2.073600E+01   2.073600E+01   2.073600E+01   2.073600E+01   2.073600E+01
CONSTANT    1.000000E+00                           #vka6                          
INTERNAL               1 (120E15.6) -1 #hk layer 7                    
   2.073600E+01   2.073600E+01   2.073600E+01   2.073600E+01   2.073600E+01   2.073600E+01   2.073600E+01   2.073600E+01   2.073600E+01   2.073600E+01   2.073600E+01   2.073600E+01   2.073600E+01   2.073600E+01   2.073600E+01   2.073600E+01   2.073600E+01   2.073600E+01   2.073600E+01   2.073600E+01   2.073600E+01   2.073600E+01   2.073600E+01   2.073600E+01   2.073600E+01   2.073600E+01   2.073600E+01   2.073600E+01   2.073600E+01   2.073600E+01   2.073600E+01   2.073600E+01   2.073600E+01   2.073600E+01   2.073600E+01   2.073600E+01   2.073600E+01   2.073600E+01   2.073600E+01   2.073600E+01   2.073600E+01   2.073600E+01   2.073600E+01   2.073600E+01   2.073600E+01   2.073600E+01   2.073600E+01   2.073600E+01   2.073600E+01   2.073600E+01   2.073600E+01   2.073600E+01   2.073600E+01   2.073600E+01   2.073600E+01   2.073600E+01   2.073600E+01   2.073600E+01   2.073600E+01   2.073600E+01   2.073600E+01   2.073600E+01   2.073600E+01   2.073600E+01   2.073600E+01   2.073600E+01   2.073600E+01   2.073600E+01   2.073600E+01   2.073600E+01   2.073600E+01   2.073600E+01   2.073600E+01   2.073600E+01   2.073600E+01   2.073600E+01   2.073600E+01   2.073600E+01   2.073600E+01   2.073600E+01   2.073600E+01   2.073600E+01   2.073600E+01   2.073600E+01   2.073600E+01   2.073600E+01   2.073600E+01   2.073600E+01   2.073600E+01   2.073600E+01   2.073600E+01   2.073600E+01   2.073600E+01   2.073600E+01   2.073600E+01   2.073600E+01   2.073600E+01   2.073600E+01   2.073600E+01   2.073600E+01   2.073600E+01   2.073600E+01   2.073600E+01   2.073600E+01   2.073600E+01   2.073600E+01   2.073600E+01   2.073600E+01   2.073600E+01   2.073600E+01   2.073600E+01   2.073600E+01   2.073600E+01   2.073600E+01   2.073600E+01   2.073600E+01   2.073600E+01   2.073600E+01   2.073600E+01   2.073600E+01
CONSTANT    1.000000E+00                           #vka7                          
INTERNAL               1 (120E15.6) -1 #hk layer 8                    
   2.073600E+01   2.073600E+01   2.073600E+01   2.073600E+01   2.073600E+01   2.073600E+01   2.073600E+01   2.073600E+01   2.073600E+01   2.073600E+01   2.073600E+01   2.073600E+01   2.073600E+01   2.073600E+01   2.073600E+01   2.073600E+01   2.073600E+01   2.073600E+01   2.073600E+01   2.073600E+01   2.073600E+01   2.073600E+01   2.073600E+01   2.073600E+01   2.073600E+01   2.073600E+01   2.073600E+01   2.073600E+01   2.073600E+01   2.073600E+01   2.073600E+01   2.073600E+01   2.073600E+01   2.073600E+01   2.073600E+01   2.073600E+01   2.073600E+01   2.073600E+01   2.073600E+01   2.073600E+01   2.073600E+01   2.073600E+01   2.073600E+01   2.073600E+01   2.073600E+01   2.073600E+01   2.073600E+01   2.073600E+01   2.073600E+01   2.073600E+01   2.073600E+01   2.073600E+01   2.073600E+01   2.073600E+01   2.073600E+01   2.073600E+01   2.073600E+01   2.073600E+01   2.073600E+01   2.073600E+01   2.073600E+01   2.073600E+01   2.073600E+01   2.073600E+01   2.073600E+01   2.073600E+01   2.073600E+01   2.073600E+01   2.073600E+01   2.073600E+01   2.073600E+01   2.073600E+01   2.073600E+01   2.073600E+01   2.073600E+01   2.073600E+01   2.073600E+01   2.073600E+01   2.073600E+01   2.073600E+01   2.073600E+01   2.073600E+01   2.073600E+01   2.073600E+01   2.073600E+01   2.073600E+01   2.073600E+01   2.073600E+01   2.073600E+01   2.073600E+01   2.073600E+01   2.073600E+01   2.073600E+01   2.073600E+01   2.073600E+01   2.073600E+01   2.073600E+01   2.073600E+01   2.073600E+01   2.073600E+01   2.073600E+01   2.073600E+01   2.073600E+01   2.073600E+01   2.073600E+01   2.073600E+01   2.073600E+01   2.073600E+01   2.073600E+01   2.073600E+01   2.073600E+01   2.073600E+01   2.073600E+01   2.073600E+01   2.073600E+01   2.073600E+01   2.073600E+01   2.073600E+01   2.073600E+01   2.073600E+01
CONSTANT    1.000000E+00                           #vka8                          
INTERNAL               1 (120E15.6) -1 #hk layer 9                    
   2.073600E+01   2.073600E+01   2.073600E+01   2.073600E+01   2.073600E+01   2.073600E+01   2.073600E+01   2.073600E+01   2.073600E+01   2.073600E+01   2.073600E+01   2.073600E+01   2.073600E+01   2.073600E+01   2.073600E+01   2.073600E+01   2.073600E+01   2.073600E+01   2.073600E+01   2.073600E+01   2.073600E+01   2.073600E+01   2.073600E+01   2.073600E+01   2.073600E+01   2.073600E+01   2.073600E+01   2.073600E+01   2.073600E+01   2.073600E+01   2.073600E+01   2.073600E+01   2.073600E+01   2.073600E+01   2.073600E+01   2.073600E+01   2.073600E+01   2.073600E+01   2.073600E+01   2.073600E+01   2.073600E+01   2.073600E+01   2.073600E+01   2.073600E+01   2.073600E+01   2.073600E+01   2.073600E+01   2.073600E+01   2.073600E+01   2.073600E+01   2.073600E+01   2.073600E+01   2.073600E+01   2.073600E+01   2.073600E+01   2.073600E+01   2.073600E+01   2.073600E+01   2.073600E+01   2.073600E+01   2.073600E+01   2.073600E+01   2.073600E+01   2.073600E+01   2.073600E+01   2.073600E+01   2.073600E+01   2.073600E+01   2.073600E+01   2.073600E+01   2.073600E+01   2.073600E+01   2.073600E+01   2.073600E+01   2.073600E+01   2.073600E+01   2.073600E+01   2.073600E+01   2.073600E+01   2.073600E+01   2.073600E+01   2.073600E+01   2.073600E+01   2.073600E+01   2.073600E+01   2.073600E+01   2.073600E+01   2.073600E+01   2.073600E+01   2.073600E+01   2.073600E+01   2.073600E+01   2.073600E+01   2.073600E+01   2.073600E+01   2.073600E+01   2.073600E+01   2.073600E+01   2.073600E+01   2.073600E+01   2.073600E+01   2.073600E+01   2.073600E+01   2.073600E+01   2.073600E+01   2.073600E+01   2.073600E+01   2.073600E+01   2.073600E+01   2.073600E+01   2.073600E+01   2.073600E+01   2.073600E+01   2.073600E+01   2.073600E+01   2.073600E+01   2.073600E+01   2.073600E+01   2.073600E+01   2.073600E+01
CONSTANT    1.000000E+00                           #vka9                          
INTERNAL               1 (120E15.6) -1 #hk layer 10                   
   2.073600E+01   2.073600E+01   2.073600E+01   2.073600E+01   2.073600E+01   2.073600E+01   2.073600E+01   2.073600E+01   2.073600E+01   2.073600E+01   2.073600E+01   2.073600E+01   2.073600E+01   2.073600E+01   2.073600E+01   2.073600E+01   2.073600E+01   2.073600E+01   2.073600E+01   2.073600E+01   2.073600E+01   2.073600E+01   2.073600E+01   2.073600E+01   2.073600E+01   2.073600E+01   2.073600E+01   2.073600E+01   2.073600E+01   2.073600E+01   2.073600E+01   2.073600E+01   2.073600E+01   2.073600E+01   2.073600E+01   2.073600E+01   2.073600E+01   2.073600E+01   2.073600E+01   2.073600E+01   2.073600E+01   2.073600E+01   2.073600E+01   2.073600E+01   2.073600E+01   2.073600E+01   2.073600E+01   2.073600E+01   2.073600E+01   2.073600E+01   2.073600E+01   2.073600E+01   2.073600E+01   2.073600E+01   2.073600E+01   2.073600E+01   2.073600E+01   2.073600E+01   2.073600E+01   2.073600E+01   2.073600E+01   2.073600E+01   2.073600E+01   2.073600E+01   2.073600E+01   2.073600E+01   2.073600E+01   2.073600E+01   2.073600E+01   2.073600E+01   2.073600E+01   2.073600E+01   2.073600E+01   2.073600E+01   2.073600E+01   2.073600E+01   2.073600E+01   2.073600E+01   2.073600E+01   2.073600E+01   2.073600E+01   2.073600E+01   2.073600E+01   2.073600E+01   2.073600E+01   2.073600E+01   2.073600E+01   2.073600E+01   2.073600E+01   2.073600E+01   2.073600E+01   2.073600E+01   2.073600E+01   2.073600E+01   2.073600E+01   2.073600E+01   2.073600E+01   2.073600E+01   2.073600E+01   2.073600E+01   2.073600E+01   2.073600E+01   2.073600E+01   2.073600E+01   2.073600E+01   2.073600E+01   2.073600E+01   2.073600E+01   2.073600E+01   2.073600E+01   2.073600E+01   2.073600E+01   2.073600E+01   2.073600E+01   2.073600E+01   2.073600E+01   2.073600E+01   2.073600E+01   2.073600E+01   2.073600E+01
CONSTANT    1.000000E+00                           #vka10                         
INTERNAL               1 (120E15.6) -1 #hk layer 11                   
   2.073600E+01   2.073600E+01   2.073600E+01   2.073600E+01   2.073600E+01   2.073600E+01   2.073600E+01   2.073600E+01   2.073600E+01   2.073600E+01   2.073600E+01   2.073600E+01   2.073600E+01   2.073600E+01   2.073600E+01   8.640000E-06   8.640000E-06   8.640000E-06   8.640000E-06   8.640000E-06   8.640000E-06   8.640000E-06   8.640000E-06   8.640000E-06   8.640000E-06   8.640000E-06   8.640000E-06   8.640000E-06   8.640000E-06   8.640000E-06   8.640000E-06   8.640000E-06   8.640000E-06   8.640000E-06   8.640000E-06   8.640000E-06   8.640000E-06   8.640000E-06   8.640000E-06   8.640000E-06   8.640000E-06   8.640000E-06   8.640000E-06   8.640000E-06   8.640000E-06   8.640000E-06   8.640000E-06   8.640000E-06   8.640000E-06   8.640000E-06   8.640000E-06   8.640000E-06   8.640000E-06   8.640000E-06   8.640000E-06   8.640000E-06   8.640000E-06   8.640000E-06   8.640000E-06   8.640000E-06   8.640000E-06   8.640000E-06   8.640000E-06   8.640000E-06   8.640000E-06   8.640000E-06   8.640000E-06   8.640000E-06   8.640000E-06   8.640000E-06   8.640000E-06   8.640000E-06   8.640000E-06   8.640000E-06   8.640000E-06   8.640000E-06   8.640000E-06   8.640000E-06   8.640000E-06   8.640000E-06   8.640000E-06   8.640000E-06   8.640000E-06   8.640000E-06   8.640000E-06   8.640000E-06   8.640000E-06   8.640000E-06   8.640000E-06   8.640000E-06   8.640000E-06   8.640000E-06   8.640000E-06   8.640000E-06   8.640000E-06   8.640000E-06   8.640000E-06   8.640000E-06   8.640000E-06   8.640000E-06   8.640000E-06   8.640000E-06   8.640000E-06   8.640000E-06   8.640000E-06   2.073600E+01   2.073600E+01   2.073600E+01   2.073600E+01   2.073600E+01   2.073600E+01   2.073600E+01   2.073600E+01   2.073600E+01   2.073600E+01   2.073600E+01   2.073600E+01   2.073600E+01   2.073600E+01   2.073600E+01
CONSTANT    1.000000E+00                           #vka11                         
INTERNAL               1 (120E15.6) -1 #hk layer 12                   
   2.073600E+01   2.073600E+01   2.073600E+01   2.073600E+01   2.073600E+01   2.073600E+01   2.073600E+01   2.073600E+01   2.073600E+01   2.073600E+01   2.073600E+01   2.073600E+01   2.073600E+01   2.073600E+01   2.073600E+01   8.640000E-06   8.640000E-06   8.640000E-06   8.640000E-06   8.640000E-06   8.640000E-06   8.640000E-06   8.640000E-06   8.640000E-06   8.640000E-06   8.640000E-06   8.640000E-06   8.640000E-06   8.640000E-06   8.640000E-06   8.640000E-06   8.640000E-06   8.640000E-06   8.640000E-06   8.640000E-06   8.640000E-06   8.640000E-06   8.640000E-06   8.640000E-06   8.640000E-06   8.640000E-06   8.640000E-06   8.640000E-06   8.640000E-06   8.640000E-06   8.640000E-06   8.640000E-06   8.640000E-06   8.640000E-06   8.640000E-06   8.640000E-06   8.640000E-06   8.640000E-06   8.640000E-06   8.640000E-06   8.640000E-06   8.640000E-06   8.640000E-06   8.640000E-06   8.640000E-06   8.640000E-06   8.640000E-06   8.640000E-06   8.640000E-06   8.640000E-06   8.640000E-06   8.640000E-06   8.640000E-06   8.640000E-06   8.640000E-06   8.640000E-06   8.640000E-06   8.640000E-06   8.640000E-06   8.640000E-06   8.640000E-06   8.640000E-06   8.640000E-06   8.640000E-06   8.640000E-06   8.640000E-06   8.640000E-06   8.640000E-06   8.640000E-06   8.640000E-06   8.640000E-06   8.640000E-06   8.640000E-06   8.640000E-06   8.640000E-06   8.640000E-06   8.640000E-06   8.640000E-06   8.640000E-06   8.640000E-06   8.640000E-06   8.640000E-06   8.640000E-06   8.640000E-06   8.640000E-06   8.640000E-06   8.640000E-06   8.640000E-06   8.640000E-06   8.640000E-06   2.073600E+01   2.073600E+01   2.073600E+01   2.073600E+01   2.073600E+01   2.073600E+01   2.073600E+01   2.073600E+01   2.073600E+01   2.073600E+01   2.073600E+01   2.073600E+01   2.073600E+01   2.073600E+01   2.073600E+01
CONSTANT    1.000000E+00                           #vka12                         
INTERNAL               1 (120E15.6) -1 #hk layer 13                   
   2.073600E+01   2.073600E+01   2.073600E+01   2.073600E+01   2.073600E+01   2.073600E+01   2.073600E+01   2.073600E+01   2.073600E+01   2.073600E+01   2.073600E+01   2.073600E+01   2.073600E+01   2.073600E+01   2.073600E+01   8.640000E-06   8.640000E-06   8.640000E-06   8.640000E-06   8.640000E-06   8.640000E-06   8.640000E-06   8.640000E-06   8.640000E-06   8.640000E-06   8.640000E-06   8.640000E-06   8.640000E-06   8.640000E-06   8.640000E-06   8.640000E-06   8.640000E-06   8.640000E-06   8.640000E-06   8.640000E-06   8.640000E-06   8.640000E-06   8.640000E-06   8.640000E-06   8.640000E-06   8.640000E-06   8.640000E-06   8.640000E-06   8.640000E-06   8.640000E-06   8.640000E-06   8.640000E-06   8.640000E-06   8.640000E-06   8.640000E-06   8.640000E-06   8.640000E-06   8.640000E-06   8.640000E-06   8.640000E-06   8.640000E-06   8.640000E-06   8.640000E-06   8.640000E-06   8.640000E-06   8.640000E-06   8.640000E-06   8.640000E-06   8.640000E-06   8.640000E-06   8.640000E-06   8.640000E-06   8.640000E-06   8.640000E-06   8.640000E-06   8.640000E-06   8.640000E-06   8.640000E-06   8.640000E-06   8.640000E-06   8.640000E-06   8.640000E-06   8.640000E-06   8.640000E-06   8.640000E-06   8.640000E-06   8.640000E-06   8.640000E-06   8.640000E-06   8.640000E-06   8.640000E-06   8.640000E-06   8.640000E-06   8.640000E-06   8.640000E-06   8.640000E-06   8.640000E-06   8.640000E-06   8.640000E-06   8.640000E-06   8.640000E-06   8.640000E-06   8.640000E-06   8.640000E-06   8.640000E-06   8.640000E-06   8.640000E-06   8.640000E-06   8.640000E-06   8.640000E-06   2.073600E+01   2.073600E+01   2.073600E+01   2.073600E+01   2.073600E+01   2.073600E+01   2.073600E+01   2.073600E+01   2.073600E+01   2.073600E+01   2.073600E+01   2.073600E+01   2.073600E+01   2.073600E+01   2.073600E+01
CONSTANT    1.000000E+00                           #vka13                         
INTERNAL               1 (120E15.6) -1 #hk layer 14                   
   2.073600E+01   2.073600E+01   2.073600E+01   2.073600E+01   2.073600E+01   2.073600E+01   2.073600E+01   2.073600E+01   2.073600E+01   2.073600E+01   2.073600E+01   2.073600E+01   2.073600E+01   2.073600E+01   2.073600E+01   8.640000E-06   8.640000E-06   8.640000E-06   8.640000E-06   8.640000E-06   8.640000E-06   8.640000E-06   8.640000E-06   8.640000E-06   8.640000E-06   8.640000E-06   8.640000E-06   8.640000E-06   8.640000E-06   8.640000E-06   8.640000E-06   8.640000E-06   8.640000E-06   8.640000E-06   8.640000E-06   8.640000E-06   8.640000E-06   8.640000E-06   8.640000E-06   8.640000E-06   8.640000E-06   8.640000E-06   8.640000E-06   8.640000E-06   8.640000E-06   8.640000E-06   8.640000E-06   8.640000E-06   8.640000E-06   8.640000E-06   8.640000E-06   8.640000E-06   8.640000E-06   8.640000E-06   8.640000E-06   8.640000E-06   8.640000E-06   8.640000E-06   8.640000E-06   8.640000E-06   8.640000E-06   8.640000E-06   8.640000E-06   8.640000E-06   8.640000E-06   8.640000E-06   8.640000E-06   8.640000E-06   8.640000E-06   8.640000E-06   8.640000E-06   8.640000E-06   8.640000E-06   8.640000E-06   8.640000E-06   8.640000E-06   8.640000E-06   8.640000E-06   8.640000E-06   8.640000E-06   8.640000E-06   8.640000E-06   8.640000E-06   8.640000E-06   8.640000E-06   8.640000E-06   8.640000E-06   8.640000E-06   8.640000E-06   8.640000E-06   8.640000E-06   8.640000E-06   8.640000E-06   8.640000E-06   8.640000E-06   8.640000E-06   8.640000E-06   8.640000E-06   8.640000E-06   8.640000E-06   8.640000E-06   8.640000E-06   8.640000E-06   8.640000E-06   8.640000E-06   2.073600E+01   2.073600E+01   2.073600E+01   2.073600E+01   2.073600E+01   2.073600E+01   2.073600E+01   2.073600E+01   2.073600E+01   2.073600E+01   2.073600E+01   2.073600E+01   2.073600E+01   2.073600E+01   2.073600E+01
CONSTANT    1.000000E+00                           #vka14                         
INTERNAL               1 (120E15.6) -1 #hk layer 15                   