# File generated by Flopy version 3.9.1 on 06/21/2025 at 07:15:19.
BEGIN options
END options

BEGIN dimensions
  MAXBOUND  2
END dimensions

BEGIN period  1
  1 1 1 0
  1 1 3 0
END period  1

