# RIV package for MODFLOW-2005 generated by Flopy 3.9.1
        40        50 AUX IFACE
        40         0 # stress period 1
         1         1        15            20.1            0.05            20.0             0.0
         1         2        15           19.87            0.05           19.75             0.0
         1         3        15           19.65            0.05            19.5             0.0
         1         4        15           19.42            0.05           19.25             0.0
         1         5        15           19.19            0.05            19.0             0.0
         1         6        15           18.97            0.05           18.75             0.0
         1         7        15           18.74            0.05            18.5             0.0
         1         8        15           18.51            0.05           18.25             0.0
         1         9        15           18.28            0.05            18.0             0.0
         1        10        15           19.06            0.05           17.75             0.0
         1        11        15           17.83            0.05            17.5             0.0
         1        12        15            17.6            0.05           17.25             0.0
         1        13        15           17.38            0.05            17.0             0.0
         1        14        15           17.15            0.05           16.75             0.0
         1        15        15           16.92            0.05            16.5             0.0
         1        16        15            16.7            0.05           16.25             0.0
         1        17        15           16.47            0.05            16.0             0.0
         1        18        15           16.24            0.05           15.75             0.0
         1        19        15           16.02            0.05            15.5             0.0
         1        20        15           15.79            0.05           15.25             0.0
         1        21        15           15.56            0.05            15.0             0.0
         1        22        15           15.33            0.05           14.75             0.0
         1        23        15           15.11            0.05            14.5             0.0
         1        24        15           14.88            0.05           14.25             0.0
         1        25        15           14.65            0.05            14.0             0.0
         1        26        15           14.43            0.05           13.75             0.0
         1        27        15            14.2            0.05            13.5             0.0
         1        28        15           13.97            0.05           13.25             0.0
         1        29        15           13.75            0.05            13.0             0.0
         1        30        15           13.52            0.05           12.75             0.0
         1        31        15           13.29            0.05            12.5             0.0
         1        32        15           13.07            0.05           12.25             0.0
         1        33        15           12.84            0.05            12.0             0.0
         1        34        15           12.61            0.05           11.75             0.0
         1        35        15           12.38            0.05            11.5             0.0
         1        36        15           12.16            0.05           11.25             0.0
         1        37        15           11.93            0.05            11.0             0.0
         1        38        15            11.7            0.05           10.75             0.0
         1        39        15           11.48            0.05            10.5             0.0
         1        40        15           11.25            0.05           10.25             0.0
