# File generated by Flopy version 3.9.1 on 02/26/2025 at 07:27:08.
BEGIN options
  SAVE_SPECIFIC_DISCHARGE
END options

BEGIN griddata
  icelltype
    CONSTANT  0
  k
    CONSTANT     432.00000000
  k33
    CONSTANT     432.00000000
END griddata

