# File generated by Flopy version 3.9.1 on 02/26/2025 at 07:27:08.
BEGIN options
END options

BEGIN griddata
  strt
    CONSTANT       0.00000000
END griddata

