# File generated by Flopy version 3.8.2 on 01/20/2025 at 10:57:37.
BEGIN options
  BUDGET  FILEOUT  symp01.cbb
  HEAD  FILEOUT  symp01.hds
END options

BEGIN period  1
  SAVE  head  all
  SAVE  budget  all
  PRINT  head  last
END period  1

