# Name file for MT3DMS, generated by Flopy version 3.9.1.
LIST              16  langmuir_pulse_mt.list
FTL               10  mt3d_link.ftl 
BTN               31  langmuir_pulse_mt.btn
ADV               32  langmuir_pulse_mt.adv
DSP               33  langmuir_pulse_mt.dsp
SSM               34  langmuir_pulse_mt.ssm
RCT               36  langmuir_pulse_mt.rct
GCG               35  langmuir_pulse_mt.gcg
