# File generated by Flopy version 3.8.2 on 01/20/2025 at 10:57:37.
BEGIN options
  BOUNDNAMES
END options

BEGIN dimensions
  MAXBOUND  10
END dimensions

BEGIN period  1
  1 8 1 45 1.00000000E+03 40 
  1 8 2 45 1.00000000E+03 40 
  1 8 3 45 1.00000000E+03 40 
  1 8 4 45 1.00000000E+03 40 
  1 8 5 45 1.00000000E+03 40 
  1 8 6 45 1.00000000E+03 40 
  1 8 7 45 1.00000000E+03 40 
  1 8 8 45 1.00000000E+03 40 
  1 8 9 45 1.00000000E+03 40 
  1 8 10 45 1.00000000E+03 40 
END period  1

