# File generated by Flopy version 3.10.0.dev3 on 06/16/2025 at 10:05:45.
BEGIN options
  SAVE_FLOWS
  NEWTON  UNDER_RELAXATION
END options

BEGIN packages
  dis6  model_6.dis  dis
  ic6  model_6.ic  ic
  npf6  model_6.npf  npf
  sto6  model_6.sto  sto
  rch6  model_6.rcha  rcha_0
  drn6  model_6.drn  river
  drn6  model_6_0.drn  gwd
  oc6  model_6.oc  oc
END packages

