# File generated by Flopy version 3.10.0.dev3 on 06/16/2025 at 10:05:45.
BEGIN options
  SAVE_FLOWS
  NEWTON  UNDER_RELAXATION
END options

BEGIN packages
  dis6  model_3.dis  dis
  ic6  model_3.ic  ic
  npf6  model_3.npf  npf
  sto6  model_3.sto  sto
  rch6  model_3.rcha  rcha_0
  drn6  model_3.drn  river
  drn6  model_3_0.drn  gwd
  oc6  model_3.oc  oc
END packages

