# File generated by Flopy version 3.10.0.dev3 on 06/16/2025 at 10:05:45.
BEGIN options
  auxiliary  angldegx  cdist
  NEWTON
END options

BEGIN dimensions
  NEXG  12
END dimensions

BEGIN exchangedata
  1 3 1  1 3 10  1    2500.00000000    2500.00000000    5000.00000000     180.00000000    5000.00000000
  2 3 1  2 3 10  1    2500.00000000    2500.00000000    5000.00000000     180.00000000    5000.00000000
  1 4 1  1 4 10  1    2500.00000000    2500.00000000    5000.00000000     180.00000000    5000.00000000
  2 4 1  2 4 10  1    2500.00000000    2500.00000000    5000.00000000     180.00000000    5000.00000000
  1 5 1  1 5 10  1    2500.00000000    2500.00000000    5000.00000000     180.00000000    5000.00000000
  2 5 1  2 5 10  1    2500.00000000    2500.00000000    5000.00000000     180.00000000    5000.00000000
  1 6 1  1 6 10  1    2500.00000000    2500.00000000    5000.00000000     180.00000000    5000.00000000
  2 6 1  2 6 10  1    2500.00000000    2500.00000000    5000.00000000     180.00000000    5000.00000000
  1 7 1  1 7 10  1    2500.00000000    2500.00000000    5000.00000000     180.00000000    5000.00000000
  2 7 1  2 7 10  1    2500.00000000    2500.00000000    5000.00000000     180.00000000    5000.00000000
  1 8 1  1 8 10  1    2500.00000000    2500.00000000    5000.00000000     180.00000000    5000.00000000
  2 8 1  2 8 10  1    2500.00000000    2500.00000000    5000.00000000     180.00000000    5000.00000000
END exchangedata

