# File generated by Flopy version 3.9.1 on 04/29/2025 at 18:39:07.
BEGIN options
  TIME_UNITS  days
END options

BEGIN dimensions
  NPER  4
END dimensions

BEGIN perioddata
     190.00000000  10       1.00000000
     518.00000000  2       1.00000000
    1921.00000000  17       1.00000000
       1.00000000  1       1.00000000
END perioddata

