# File generated by Flopy version 3.9.1 on 04/29/2025 at 18:39:07.
BEGIN options
END options

BEGIN griddata
  strt
    CONSTANT      25.00000000
END griddata

