# File generated by Flopy version 3.9.1 on 02/20/2025 at 14:30:32.
BEGIN options
END options

