# File generated by Flopy version 3.9.1 on 02/20/2025 at 14:30:32.
BEGIN options
  XT3D_OFF
END options

BEGIN griddata
  alh
    CONSTANT       1.00000000
  ath1
    CONSTANT       1.00000000
END griddata

