# File generated by Flopy version 3.9.1 on 02/20/2025 at 14:30:32.
BEGIN options
  TIME_UNITS  days
END options

BEGIN dimensions
  NPER  2
END dimensions

BEGIN perioddata
     160.00000000  16       1.00000000
     680.00000000  84       1.00000000
END perioddata

