# File generated by Flopy version 3.9.1 on 02/20/2025 at 14:30:32.
BEGIN options
  DIGITS  10
  PRINT_INPUT
END options

BEGIN continuous  FILEOUT  trans.obs.csv
  myobs  CONCENTRATION  1 1 52
END continuous  FILEOUT  trans.obs.csv

