# File generated by Flopy version 3.9.1 on 04/08/2025 at 17:03:33.
BEGIN options
  TIME_UNITS  days
END options

BEGIN dimensions
  NPER  1
END dimensions

BEGIN perioddata
       1.00000000  1       1.00000000
END perioddata

