# File generated by Flopy version 3.9.1 on 04/08/2025 at 17:03:33.
BEGIN options
  SAVE_FLOWS
END options

BEGIN packages
  DIS6  inner.dis  dis
  NPF6  inner.npf  npf
  IC6  inner.ic  ic
  OC6  inner.oc  oc
END packages

