# File generated by Flopy version 3.9.1 on 04/09/2025 at 08:30:37.
BEGIN options
  BUDGET  FILEOUT  inner.cbc
  HEAD  FILEOUT  inner.hds
END options

BEGIN period  1
  SAVE  HEAD  ALL
  SAVE  BUDGET  ALL
END period  1

