# File generated by Flopy version 3.9.1 on 04/09/2025 at 08:30:37.
BEGIN options
  LENGTH_UNITS  meters
  XORIGIN     200.00000000
  YORIGIN     200.00000000
END options

BEGIN dimensions
  NLAY  1
  NROW  9
  NCOL  9
END dimensions

BEGIN griddata
  delr
    CONSTANT      33.33333333
  delc
    CONSTANT      33.33333333
  top
    CONSTANT       0.00000000
  botm
    CONSTANT    -100.00000000
END griddata

