# File generated by Flopy version 3.9.1 on 04/08/2025 at 17:03:33.
BEGIN options
END options

BEGIN timing
  TDIS6  07_ex-gwf-u1gwfgwf.tdis
END timing

BEGIN models
  gwf6  outer.nam  outer
  gwf6  inner.nam  inner
END models

BEGIN exchanges
  GWF6-GWF6  07_ex-gwf-u1gwfgwf.gwfgwf  outer  inner
END exchanges

BEGIN solutiongroup  1
  ims6  07_ex-gwf-u1gwfgwf.ims  outer  inner
END solutiongroup  1

