# File generated by Flopy version 3.9.1 on 04/08/2025 at 17:03:33.
BEGIN options
END options

BEGIN dimensions
  NLAY  1
  NROW  7
  NCOL  7
END dimensions

BEGIN griddata
  delr
    CONSTANT     100.00000000
  delc
    CONSTANT     100.00000000
  top
    CONSTANT       0.00000000
  botm
    CONSTANT    -100.00000000
  idomain
    INTERNAL  FACTOR  1
    1  1  1  1  1  1  1
    1  1  1  1  1  1  1
    1  1  0  0  0  1  1
    1  1  0  0  0  1  1
    1  1  0  0  0  1  1
    1  1  1  1  1  1  1
    1  1  1  1  1  1  1
END griddata

