# File generated by Flopy version 3.9.1 on 04/09/2025 at 08:30:37.
BEGIN options
  SAVE_FLOWS
END options

BEGIN packages
  DIS6  outer.dis  dis
  NPF6  outer.npf  npf
  IC6  outer.ic  ic
  CHD6  outer.left.chd  chd-left
  CHD6  outer.right.chd  chd-right
  OC6  outer.oc  oc
END packages

