# File generated by Flopy version 3.9.1 on 04/08/2025 at 17:03:33.
BEGIN options
  BUDGET  FILEOUT  outer.cbc
  HEAD  FILEOUT  outer.hds
END options

BEGIN period  1
  SAVE  HEAD  ALL
  SAVE  BUDGET  ALL
END period  1

