# File generated by Flopy version 3.9.1 on 04/08/2025 at 17:03:33.
BEGIN options
END options

BEGIN griddata
  strt
    CONSTANT       0.00000000
END griddata

