# Name file for MODFLOW-2005, generated by Flopy version 3.9.1.
#xll:0.0; yll:0.0; rotation:0.0; units:centimeters; lenuni:3; start_datetime:1-1-1970
LIST               2  freundlich_pulse_mf.list
DIS               11  freundlich_pulse_mf.dis
BAS6              13  freundlich_pulse_mf.bas
LPF               15  freundlich_pulse_mf.lpf
PCG               27  freundlich_pulse_mf.pcg
LMT6              30  freundlich_pulse_mf.lmt6
