# WEL package for MODFLOW-2005 generated by Flopy 3.9.1
         1         0 
         1         0 # stress period 1
         1        26         6          1000.0
