# File generated by Flopy version 3.9.1 on 02/24/2025 at 15:11:39.
BEGIN options
  COMPLEXITY  simple
END options

