# File generated by Flopy version 3.9.1 on 02/24/2025 at 15:11:39.
BEGIN options
  TIME_UNITS  days
END options

BEGIN dimensions
  NPER  4
END dimensions

BEGIN perioddata
       1.00000000  1       1.00000000
      10.00000000  5       1.00000000
      10.00000000  5       1.00000000
      10.00000000  1       1.00000000
END perioddata

