# File generated by Flopy version 3.9.1 on 02/24/2025 at 15:11:39.
BEGIN options
END options

BEGIN packages
  DIS6  tut_mf6_03.dis  dis
  IC6  tut_mf6_03.ic  ic
  NPF6  tut_mf6_03.npf  npf
  GHB6  tut_mf6_03.ghb  ghb
END packages

