# File generated by Flopy version 3.9.1 on 05/16/2025 at 17:24:54.
BEGIN OPTIONS
  BUDGET  FILEOUT  freyberg.cbc
  HEAD  FILEOUT  freyberg.hds
END OPTIONS

BEGIN PERIOD  1
  SAVE  head  all
  SAVE  budget  all
  PRINT  budget  all
END PERIOD  1

