# Name file for MODPATH 7, generated by Flopy version 3.9.1.
MPBAS      freyberg_mp.mpbas
GRBDIS     .\freyberg.dis.grb
TDIS       .\freyberg.tdis
HEAD       .\freyberg.hds
BUDGET     .\freyberg.cbc
