# File generated by Flopy version 3.9.1 on 05/16/2025 at 17:24:54.
BEGIN OPTIONS
END OPTIONS

BEGIN TIMING
  TDIS6  freyberg.tdis
END TIMING

BEGIN MODELS
  gwf6  freyberg.nam  freyberg
END MODELS

BEGIN EXCHANGES
END EXCHANGES

BEGIN SOLUTIONGROUP  1
  MXITER  1
  ims6  freyberg.ims  freyberg
END SOLUTIONGROUP  1

