## BTN for MT3DMS, generated by Flopy.
##
         1         1        21         1         1         1
S   CM  KG  
T T T F T 
 0
         0       0.5                           -1 #delr
         0       4.4                           -1 #delc
         0         0                           -1 #htop
        31         1          (21E15.6)        -1 #dz layer 1
   4.400000E+00   4.400000E+00   4.400000E+00   4.400000E+00   4.400000E+00   4.400000E+00   4.400000E+00   4.400000E+00   4.400000E+00   4.400000E+00   4.400000E+00   4.400000E+00   4.400000E+00   4.400000E+00   4.400000E+00   4.400000E+00   4.400000E+00   4.400000E+00   4.400000E+00   4.400000E+00   4.400000E+00
         0       0.3                           -1 #prsity layer 1
        31         1            (21I10)        -1 #icbund layer 1
         1         1         1         1         1         1         1         1         1         1         1         1         1         1         1         1         1         1         1         1         1
        31         1          (21E15.6)        -1 #sconc1 layer 1
   0.000000E+00   0.000000E+00   0.000000E+00   0.000000E+00   0.000000E+00   0.000000E+00   0.000000E+00   0.000000E+00   0.000000E+00   0.000000E+00   0.000000E+00   0.000000E+00   0.000000E+00   0.000000E+00   0.000000E+00   0.000000E+00   0.000000E+00   0.000000E+00   0.000000E+00   0.000000E+00   0.000000E+00
     1E+30  1.00E-02
         0         0         0         0         T
       100
0.0000E+001.8000E+013.6000E+015.4000E+017.2000E+019.0000E+011.0800E+021.2600E+02
1.4400E+021.6200E+021.8000E+021.9800E+022.1600E+022.3400E+022.5200E+022.7000E+02
2.8800E+023.0600E+023.2400E+023.4200E+023.6000E+023.7800E+023.9600E+024.1400E+02
4.3200E+024.5000E+024.6800E+024.8600E+025.0400E+025.2200E+025.4000E+025.5800E+02
5.7600E+025.9400E+026.1200E+026.3000E+026.4800E+026.6600E+026.8400E+027.0200E+02
7.2000E+027.3800E+027.5600E+027.7400E+027.9200E+028.1000E+028.2800E+028.4600E+02
8.6400E+028.8200E+029.0000E+029.1800E+029.3600E+029.5400E+029.7200E+029.9000E+02
1.0080E+031.0260E+031.0440E+031.0620E+031.0800E+031.0980E+031.1160E+031.1340E+03
1.1520E+031.1700E+031.1880E+031.2060E+031.2240E+031.2420E+031.2600E+031.2780E+03
1.2960E+031.3140E+031.3320E+031.3500E+031.3680E+031.3860E+031.4040E+031.4220E+03
1.4400E+031.4580E+031.4760E+031.4940E+031.5120E+031.5300E+031.5480E+031.5660E+03
1.5840E+031.6020E+031.6200E+031.6380E+031.6560E+031.6740E+031.6920E+031.7100E+03
1.7280E+031.7460E+031.7640E+031.7820E+03
         0         1
         T         1
      1800         1         1
         0     50000         1         0
