# File generated by Flopy version 3.9.1 on 06/21/2025 at 17:16:02.
BEGIN options
  SAVE_FLOWS
END options

BEGIN packages
  DIS6  ex-gwf-spbc.dis  dis
  NPF6  ex-gwf-spbc.npf  npf
  IC6  ex-gwf-spbc.ic  ic
  CHD6  ex-gwf-spbc.chd  chd
  OC6  ex-gwf-spbc.oc  oc
END packages

