# File generated by Flopy version 3.9.1 on 07/01/2025 at 14:38:25.
BEGIN options
  BUDGET  FILEOUT  ex-gwf-spbc.cbc
  HEAD  FILEOUT  ex-gwf-spbc.hds
END options

BEGIN period  1
  SAVE  HEAD  ALL
  SAVE  BUDGET  ALL
END period  1

