# File generated by Flopy version 3.9.1 on 07/01/2025 at 14:38:25.
BEGIN options
END options

BEGIN griddata
  strt
    CONSTANT       0.00000000
END griddata

