# File generated by Flopy version 3.9.1 on 04/01/2025 at 11:13:16.
BEGIN options
END options

BEGIN griddata
  strt
    CONSTANT       0.00000000
END griddata

