# File generated by Flopy version 3.9.1 on 04/16/2025 at 15:37:21.
BEGIN options
END options

BEGIN griddata
  strt
    CONSTANT       0.00000000
END griddata

