# File generated by Flopy version 3.9.1 on 04/01/2025 at 11:13:16.
BEGIN options
END options

BEGIN dimensions
  MAXBOUND  10
END dimensions

BEGIN period  1
  2 1 15 0.00000000E+00 1.00000000E+04 -5
  2 2 15 0.00000000E+00 1.00000000E+04 -5
  2 3 15 0.00000000E+00 1.00000000E+04 -5
  2 4 15 0.00000000E+00 1.00000000E+04 -5
  2 5 15 0.00000000E+00 1.00000000E+04 -5
  2 6 15 0.00000000E+00 1.00000000E+04 -5
  2 7 15 0.00000000E+00 1.00000000E+04 -5
  2 8 15 0.00000000E+00 1.00000000E+04 -5
  2 9 15 0.00000000E+00 1.00000000E+04 -5
  2 10 15 0.00000000E+00 1.00000000E+04 -5
END period  1

