MODPATH_TIMESERIES_FILE         7         2
    2   0.0000000000E+00  0.0000000000E+00  0.0000000000E+00  0.0000000000E+00
END HEADER
       0       1  0.0000000000E+00         1    1         1      1050  0.5000000000E+00  0.5000000000E+00  0.5000000000E+00  0.4750000000E+04  0.5250000000E+04  0.1000000000E+03         3
       0       1  0.0000000000E+00         2    1         2        20  0.5000000000E+00  0.5000000000E+00  0.5000000000E+00  0.9750000000E+04  0.1025000000E+05  0.2700894870E+03         1
       0       1  0.0000000000E+00         3    1         3        40  0.5000000000E+00  0.5000000000E+00  0.5000000000E+00  0.9750000000E+04  0.9750000000E+04  0.2700894704E+03         1
       0       1  0.0000000000E+00         4    1         4        60  0.5000000000E+00  0.5000000000E+00  0.5000000000E+00  0.9750000000E+04  0.9250000000E+04  0.2700894382E+03         1
       0       1  0.0000000000E+00         5    1         5        80  0.5000000000E+00  0.5000000000E+00  0.5000000000E+00  0.9750000000E+04  0.8750000000E+04  0.2700893927E+03         1
       0       1  0.0000000000E+00         6    1         6       100  0.5000000000E+00  0.5000000000E+00  0.5000000000E+00  0.9750000000E+04  0.8250000000E+04  0.2700893372E+03         1
       0       1  0.0000000000E+00         7    1         7       120  0.5000000000E+00  0.5000000000E+00  0.5000000000E+00  0.9750000000E+04  0.7750000000E+04  0.2700892758E+03         1
       0       1  0.0000000000E+00         8    1         8       140  0.5000000000E+00  0.5000000000E+00  0.5000000000E+00  0.9750000000E+04  0.7250000000E+04  0.2700892138E+03         1
       0       1  0.0000000000E+00         9    1         9       160  0.5000000000E+00  0.5000000000E+00  0.5000000000E+00  0.9750000000E+04  0.6750000000E+04  0.2700891570E+03         1
       0       1  0.0000000000E+00        10    1        10       180  0.5000000000E+00  0.5000000000E+00  0.5000000000E+00  0.9750000000E+04  0.6250000000E+04  0.2700891112E+03         1
       0       1  0.0000000000E+00        11    1        11       200  0.5000000000E+00  0.5000000000E+00  0.5000000000E+00  0.9750000000E+04  0.5750000000E+04  0.2700890813E+03         1
       0       1  0.0000000000E+00        12    1        12       220  0.5000000000E+00  0.5000000000E+00  0.5000000000E+00  0.9750000000E+04  0.5250000000E+04  0.2700890709E+03         1
       0       1  0.0000000000E+00        13    1        13       240  0.5000000000E+00  0.5000000000E+00  0.5000000000E+00  0.9750000000E+04  0.4750000000E+04  0.2700890813E+03         1
       0       1  0.0000000000E+00        14    1        14       260  0.5000000000E+00  0.5000000000E+00  0.5000000000E+00  0.9750000000E+04  0.4250000000E+04  0.2700891112E+03         1
       0       1  0.0000000000E+00        15    1        15       280  0.5000000000E+00  0.5000000000E+00  0.5000000000E+00  0.9750000000E+04  0.3750000000E+04  0.2700891570E+03         1
       0       1  0.0000000000E+00        16    1        16       300  0.5000000000E+00  0.5000000000E+00  0.5000000000E+00  0.9750000000E+04  0.3250000000E+04  0.2700892138E+03         1
       0       1  0.0000000000E+00        17    1        17       320  0.5000000000E+00  0.5000000000E+00  0.5000000000E+00  0.9750000000E+04  0.2750000000E+04  0.2700892758E+03         1
       0       1  0.0000000000E+00        18    1        18       340  0.5000000000E+00  0.5000000000E+00  0.5000000000E+00  0.9750000000E+04  0.2250000000E+04  0.2700893372E+03         1
       0       1  0.0000000000E+00        19    1        19       360  0.5000000000E+00  0.5000000000E+00  0.5000000000E+00  0.9750000000E+04  0.1750000000E+04  0.2700893927E+03         1
       0       1  0.0000000000E+00        20    1        20       380  0.5000000000E+00  0.5000000000E+00  0.5000000000E+00  0.9750000000E+04  0.1250000000E+04  0.2700894382E+03         1
       0       1  0.0000000000E+00        21    1        21       400  0.5000000000E+00  0.5000000000E+00  0.5000000000E+00  0.9750000000E+04  0.7500000000E+03  0.2700894704E+03         1
       0       1  0.0000000000E+00        22    1        22       420  0.5000000000E+00  0.5000000000E+00  0.5000000000E+00  0.9750000000E+04  0.2500000000E+03  0.2700894870E+03         1
       1       1  0.1000000000E-01         1    1         1      1050  0.4999970533E+00  0.5000000000E+00  0.5000002944E+00  0.4749998527E+04  0.5250000000E+04  0.1000000589E+03         3
       1       1  0.1000000000E-01         2    1         2        20  0.4999897490E+00  0.5000000001E+00  0.4999991723E+00  0.9749994875E+04  0.1025000000E+05  0.2700894041E+03         1
       1       1  0.1000000000E-01         3    1         3        40  0.4999897509E+00  0.5000000003E+00  0.4999991727E+00  0.9749994875E+04  0.9750000000E+04  0.2700893875E+03         1
       1       1  0.1000000000E-01         4    1         4        60  0.4999897545E+00  0.5000000005E+00  0.4999991733E+00  0.9749994877E+04  0.9250000000E+04  0.2700893554E+03         1
       1       1  0.1000000000E-01         5    1         5        80  0.4999897597E+00  0.5000000007E+00  0.4999991742E+00  0.9749994880E+04  0.8750000000E+04  0.2700893100E+03         1
       1       1  0.1000000000E-01         6    1         6       100  0.4999897660E+00  0.5000000008E+00  0.4999991753E+00  0.9749994883E+04  0.8250000000E+04  0.2700892545E+03         1
       1       1  0.1000000000E-01         7    1         7       120  0.4999897730E+00  0.5000000008E+00  0.4999991765E+00  0.9749994887E+04  0.7750000000E+04  0.2700891933E+03         1
       1       1  0.1000000000E-01         8    1         8       140  0.4999897801E+00  0.5000000008E+00  0.4999991777E+00  0.9749994890E+04  0.7250000000E+04  0.2700891315E+03         1
       1       1  0.1000000000E-01         9    1         9       160  0.4999897865E+00  0.5000000007E+00  0.4999991788E+00  0.9749994893E+04  0.6750000000E+04  0.2700890748E+03         1
       1       1  0.1000000000E-01        10    1        10       180  0.4999897918E+00  0.5000000005E+00  0.4999991797E+00  0.9749994896E+04  0.6250000000E+04  0.2700890290E+03         1
       1       1  0.1000000000E-01        11    1        11       200  0.4999897952E+00  0.5000000003E+00  0.4999991803E+00  0.9749994898E+04  0.5750000000E+04  0.2700889991E+03         1
       1       1  0.1000000000E-01        12    1        12       220  0.4999897964E+00  0.5000000000E+00  0.4999991805E+00  0.9749994898E+04  0.5250000000E+04  0.2700889888E+03         1
       1       1  0.1000000000E-01        13    1        13       240  0.4999897952E+00  0.4999999997E+00  0.4999991803E+00  0.9749994898E+04  0.4750000000E+04  0.2700889991E+03         1
       1       1  0.1000000000E-01        14    1        14       260  0.4999897918E+00  0.4999999995E+00  0.4999991797E+00  0.9749994896E+04  0.4250000000E+04  0.2700890290E+03         1
       1       1  0.1000000000E-01        15    1        15       280  0.4999897865E+00  0.4999999993E+00  0.4999991788E+00  0.9749994893E+04  0.3750000000E+04  0.2700890748E+03         1
       1       1  0.1000000000E-01        16    1        16       300  0.4999897801E+00  0.4999999992E+00  0.4999991777E+00  0.9749994890E+04  0.3250000000E+04  0.2700891315E+03         1
       1       1  0.1000000000E-01        17    1        17       320  0.4999897730E+00  0.4999999992E+00  0.4999991765E+00  0.9749994887E+04  0.2750000000E+04  0.2700891933E+03         1
       1       1  0.1000000000E-01        18    1        18       340  0.4999897660E+00  0.4999999992E+00  0.4999991753E+00  0.9749994883E+04  0.2250000000E+04  0.2700892545E+03         1
       1       1  0.1000000000E-01        19    1        19       360  0.4999897597E+00  0.4999999993E+00  0.4999991742E+00  0.9749994880E+04  0.1750000000E+04  0.2700893100E+03         1
       1       1  0.1000000000E-01        20    1        20       380  0.4999897545E+00  0.4999999995E+00  0.4999991733E+00  0.9749994877E+04  0.1250000000E+04  0.2700893554E+03         1
       1       1  0.1000000000E-01        21    1        21       400  0.4999897509E+00  0.4999999997E+00  0.4999991727E+00  0.9749994875E+04  0.7499999998E+03  0.2700893875E+03         1
       1       1  0.1000000000E-01        22    1        22       420  0.4999897490E+00  0.4999999999E+00  0.4999991723E+00  0.9749994875E+04  0.2499999999E+03  0.2700894041E+03         1
       2       1  0.2000000000E-01         1    1         1      1050  0.4999941064E+00  0.5000000000E+00  0.5000005888E+00  0.4749997053E+04  0.5250000000E+04  0.1000001178E+03         3
       2       1  0.2000000000E-01         2    1         2        20  0.4999794978E+00  0.5000000002E+00  0.4999983447E+00  0.9749989749E+04  0.1025000000E+05  0.2700893212E+03         1
       2       1  0.2000000000E-01         3    1         3        40  0.4999795016E+00  0.5000000007E+00  0.4999983453E+00  0.9749989751E+04  0.9750000000E+04  0.2700893046E+03         1
       2       1  0.2000000000E-01         4    1         4        60  0.4999795089E+00  0.5000000010E+00  0.4999983466E+00  0.9749989754E+04  0.9250000001E+04  0.2700892726E+03         1
       2       1  0.2000000000E-01         5    1         5        80  0.4999795192E+00  0.5000000013E+00  0.4999983484E+00  0.9749989760E+04  0.8750000001E+04  0.2700892273E+03         1
       2       1  0.2000000000E-01         6    1         6       100  0.4999795319E+00  0.5000000016E+00  0.4999983506E+00  0.9749989766E+04  0.8250000001E+04  0.2700891719E+03         1
       2       1  0.2000000000E-01         7    1         7       120  0.4999795458E+00  0.5000000016E+00  0.4999983530E+00  0.9749989773E+04  0.7750000001E+04  0.2700891108E+03         1
       2       1  0.2000000000E-01         8    1         8       140  0.4999795599E+00  0.5000000016E+00  0.4999983554E+00  0.9749989780E+04  0.7250000001E+04  0.2700890491E+03         1
       2       1  0.2000000000E-01         9    1         9       160  0.4999795729E+00  0.5000000014E+00  0.4999983577E+00  0.9749989786E+04  0.6750000001E+04  0.2700889925E+03         1
       2       1  0.2000000000E-01        10    1        10       180  0.4999795833E+00  0.5000000010E+00  0.4999983595E+00  0.9749989792E+04  0.6250000001E+04  0.2700889468E+03         1
       2       1  0.2000000000E-01        11    1        11       200  0.4999795902E+00  0.5000000005E+00  0.4999983606E+00  0.9749989795E+04  0.5750000000E+04  0.2700889170E+03         1
       2       1  0.2000000000E-01        12    1        12       220  0.4999795925E+00  0.5000000000E+00  0.4999983610E+00  0.9749989796E+04  0.5250000000E+04  0.2700889067E+03         1
       2       1  0.2000000000E-01        13    1        13       240  0.4999795902E+00  0.4999999995E+00  0.4999983606E+00  0.9749989795E+04  0.4750000000E+04  0.2700889170E+03         1
       2       1  0.2000000000E-01        14    1        14       260  0.4999795833E+00  0.4999999990E+00  0.4999983595E+00  0.9749989792E+04  0.4249999999E+04  0.2700889468E+03         1
       2       1  0.2000000000E-01        15    1        15       280  0.4999795729E+00  0.4999999986E+00  0.4999983577E+00  0.9749989786E+04  0.3749999999E+04  0.2700889925E+03         1
       2       1  0.2000000000E-01        16    1        16       300  0.4999795599E+00  0.4999999984E+00  0.4999983554E+00  0.9749989780E+04  0.3249999999E+04  0.2700890491E+03         1
       2       1  0.2000000000E-01        17    1        17       320  0.4999795458E+00  0.4999999984E+00  0.4999983530E+00  0.9749989773E+04  0.2749999999E+04  0.2700891108E+03         1
       2       1  0.2000000000E-01        18    1        18       340  0.4999795319E+00  0.4999999984E+00  0.4999983506E+00  0.9749989766E+04  0.2249999999E+04  0.2700891719E+03         1
       2       1  0.2000000000E-01        19    1        19       360  0.4999795192E+00  0.4999999987E+00  0.4999983484E+00  0.9749989760E+04  0.1749999999E+04  0.2700892273E+03         1
       2       1  0.2000000000E-01        20    1        20       380  0.4999795089E+00  0.4999999990E+00  0.4999983466E+00  0.9749989754E+04  0.1249999999E+04  0.2700892726E+03         1
       2       1  0.2000000000E-01        21    1        21       400  0.4999795016E+00  0.4999999993E+00  0.4999983453E+00  0.9749989751E+04  0.7499999997E+03  0.2700893046E+03         1
       2       1  0.2000000000E-01        22    1        22       420  0.4999794978E+00  0.4999999998E+00  0.4999983447E+00  0.9749989749E+04  0.2499999999E+03  0.2700893212E+03         1
       3       1  0.3000000000E-01         1    1         1      1050  0.4999911594E+00  0.5000000000E+00  0.5000008832E+00  0.4749995580E+04  0.5250000000E+04  0.1000001766E+03         3
       3       1  0.3000000000E-01         2    1         2        20  0.4999692464E+00  0.5000000003E+00  0.4999975170E+00  0.9749984623E+04  0.1025000000E+05  0.2700892382E+03         1
       3       1  0.3000000000E-01         3    1         3        40  0.4999692520E+00  0.5000000010E+00  0.4999975180E+00  0.9749984626E+04  0.9750000000E+04  0.2700892217E+03         1
       3       1  0.3000000000E-01         4    1         4        60  0.4999692630E+00  0.5000000016E+00  0.4999975199E+00  0.9749984631E+04  0.9250000001E+04  0.2700891898E+03         1
       3       1  0.3000000000E-01         5    1         5        80  0.4999692785E+00  0.5000000020E+00  0.4999975226E+00  0.9749984639E+04  0.8750000001E+04  0.2700891446E+03         1
       3       1  0.3000000000E-01         6    1         6       100  0.4999692975E+00  0.5000000023E+00  0.4999975259E+00  0.9749984649E+04  0.8250000001E+04  0.2700890893E+03         1
       3       1  0.3000000000E-01         7    1         7       120  0.4999693184E+00  0.5000000025E+00  0.4999975295E+00  0.9749984659E+04  0.7750000001E+04  0.2700890283E+03         1
       3       1  0.3000000000E-01         8    1         8       140  0.4999693396E+00  0.5000000024E+00  0.4999975331E+00  0.9749984670E+04  0.7250000001E+04  0.2700889667E+03         1
       3       1  0.3000000000E-01         9    1         9       160  0.4999693590E+00  0.5000000021E+00  0.4999975365E+00  0.9749984680E+04  0.6750000001E+04  0.2700889102E+03         1
       3       1  0.3000000000E-01        10    1        10       180  0.4999693747E+00  0.5000000015E+00  0.4999975392E+00  0.9749984687E+04  0.6250000001E+04  0.2700888646E+03         1
       3       1  0.3000000000E-01        11    1        11       200  0.4999693849E+00  0.5000000008E+00  0.4999975409E+00  0.9749984692E+04  0.5750000000E+04  0.2700888349E+03         1
       3       1  0.3000000000E-01        12    1        12       220  0.4999693885E+00  0.5000000000E+00  0.4999975415E+00  0.9749984694E+04  0.5250000000E+04  0.2700888246E+03         1
       3       1  0.3000000000E-01        13    1        13       240  0.4999693849E+00  0.4999999992E+00  0.4999975409E+00  0.9749984692E+04  0.4750000000E+04  0.2700888349E+03         1
       3       1  0.3000000000E-01        14    1        14       260  0.4999693747E+00  0.4999999985E+00  0.4999975392E+00  0.9749984687E+04  0.4249999999E+04  0.2700888646E+03         1
       3       1  0.3000000000E-01        15    1        15       280  0.4999693590E+00  0.4999999979E+00  0.4999975365E+00  0.9749984680E+04  0.3749999999E+04  0.2700889102E+03         1
       3       1  0.3000000000E-01        16    1        16       300  0.4999693396E+00  0.4999999976E+00  0.4999975331E+00  0.9749984670E+04  0.3249999999E+04  0.2700889667E+03         1
       3       1  0.3000000000E-01        17    1        17       320  0.4999693184E+00  0.4999999975E+00  0.4999975295E+00  0.9749984659E+04  0.2749999999E+04  0.2700890283E+03         1
       3       1  0.3000000000E-01        18    1        18       340  0.4999692975E+00  0.4999999977E+00  0.4999975259E+00  0.9749984649E+04  0.2249999999E+04  0.2700890893E+03         1
       3       1  0.3000000000E-01        19    1        19       360  0.4999692785E+00  0.4999999980E+00  0.4999975226E+00  0.9749984639E+04  0.1749999999E+04  0.2700891446E+03         1
       3       1  0.3000000000E-01        20    1        20       380  0.4999692630E+00  0.4999999984E+00  0.4999975199E+00  0.9749984631E+04  0.1249999999E+04  0.2700891898E+03         1
       3       1  0.3000000000E-01        21    1        21       400  0.4999692520E+00  0.4999999990E+00  0.4999975180E+00  0.9749984626E+04  0.7499999995E+03  0.2700892217E+03         1
       3       1  0.3000000000E-01        22    1        22       420  0.4999692464E+00  0.4999999997E+00  0.4999975170E+00  0.9749984623E+04  0.2499999998E+03  0.2700892382E+03         1
       4       1  0.4000000000E-01         1    1         1      1050  0.4999882123E+00  0.5000000000E+00  0.5000011777E+00  0.4749994106E+04  0.5250000000E+04  0.1000002355E+03         3
       4       1  0.4000000000E-01         2    1         2        20  0.4999589947E+00  0.5000000004E+00  0.4999966894E+00  0.9749979497E+04  0.1025000000E+05  0.2700891553E+03         1
       4       1  0.4000000000E-01         3    1         3        40  0.4999590023E+00  0.5000000013E+00  0.4999966907E+00  0.9749979501E+04  0.9750000001E+04  0.2700891388E+03         1
       4       1  0.4000000000E-01         4    1         4        60  0.4999590169E+00  0.5000000021E+00  0.4999966932E+00  0.9749979508E+04  0.9250000001E+04  0.2700891070E+03         1
       4       1  0.4000000000E-01         5    1         5        80  0.4999590376E+00  0.5000000027E+00  0.4999966968E+00  0.9749979519E+04  0.8750000001E+04  0.2700890618E+03         1
       4       1  0.4000000000E-01         6    1         6       100  0.4999590629E+00  0.5000000031E+00  0.4999967012E+00  0.9749979531E+04  0.8250000002E+04  0.2700890067E+03         1
       4       1  0.4000000000E-01         7    1         7       120  0.4999590908E+00  0.5000000033E+00  0.4999967060E+00  0.9749979545E+04  0.7750000002E+04  0.2700889458E+03         1
       4       1  0.4000000000E-01         8    1         8       140  0.4999591190E+00  0.5000000032E+00  0.4999967109E+00  0.9749979560E+04  0.7250000002E+04  0.2700888843E+03         1
       4       1  0.4000000000E-01         9    1         9       160  0.4999591449E+00  0.5000000027E+00  0.4999967153E+00  0.9749979572E+04  0.6750000001E+04  0.2700888280E+03         1
       4       1  0.4000000000E-01        10    1        10       180  0.4999591659E+00  0.5000000020E+00  0.4999967189E+00  0.9749979583E+04  0.6250000001E+04  0.2700887825E+03         1
       4       1  0.4000000000E-01        11    1        11       200  0.4999591795E+00  0.5000000011E+00  0.4999967212E+00  0.9749979590E+04  0.5750000001E+04  0.2700887528E+03         1
       4       1  0.4000000000E-01        12    1        12       220  0.4999591842E+00  0.5000000000E+00  0.4999967221E+00  0.9749979592E+04  0.5250000000E+04  0.2700887425E+03         1
       4       1  0.4000000000E-01        13    1        13       240  0.4999591795E+00  0.4999999989E+00  0.4999967212E+00  0.9749979590E+04  0.4749999999E+04  0.2700887528E+03         1
       4       1  0.4000000000E-01        14    1        14       260  0.4999591659E+00  0.4999999980E+00  0.4999967189E+00  0.9749979583E+04  0.4249999999E+04  0.2700887825E+03         1
       4       1  0.4000000000E-01        15    1        15       280  0.4999591449E+00  0.4999999973E+00  0.4999967153E+00  0.9749979572E+04  0.3749999999E+04  0.2700888280E+03         1
       4       1  0.4000000000E-01        16    1        16       300  0.4999591190E+00  0.4999999968E+00  0.4999967109E+00  0.9749979560E+04  0.3249999998E+04  0.2700888843E+03         1
       4       1  0.4000000000E-01        17    1        17       320  0.4999590908E+00  0.4999999967E+00  0.4999967060E+00  0.9749979545E+04  0.2749999998E+04  0.2700889458E+03         1
       4       1  0.4000000000E-01        18    1        18       340  0.4999590629E+00  0.4999999969E+00  0.4999967012E+00  0.9749979531E+04  0.2249999998E+04  0.2700890067E+03         1
       4       1  0.4000000000E-01        19    1        19       360  0.4999590376E+00  0.4999999973E+00  0.4999966968E+00  0.9749979519E+04  0.1749999999E+04  0.2700890618E+03         1
       4       1  0.4000000000E-01        20    1        20       380  0.4999590169E+00  0.4999999979E+00  0.4999966932E+00  0.9749979508E+04  0.1249999999E+04  0.2700891070E+03         1
       4       1  0.4000000000E-01        21    1        21       400  0.4999590023E+00  0.4999999987E+00  0.4999966907E+00  0.9749979501E+04  0.7499999993E+03  0.2700891388E+03         1
       4       1  0.4000000000E-01        22    1        22       420  0.4999589947E+00  0.4999999996E+00  0.4999966894E+00  0.9749979497E+04  0.2499999998E+03  0.2700891553E+03         1
       5       1  0.5000000000E-01         1    1         1      1050  0.4999852650E+00  0.5000000000E+00  0.5000014721E+00  0.4749992632E+04  0.5250000000E+04  0.1000002944E+03         3
       5       1  0.5000000000E-01         2    1         2        20  0.4999487429E+00  0.5000000006E+00  0.4999958617E+00  0.9749974371E+04  0.1025000000E+05  0.2700890724E+03         1
       5       1  0.5000000000E-01         3    1         3        40  0.4999487523E+00  0.5000000016E+00  0.4999958633E+00  0.9749974376E+04  0.9750000001E+04  0.2700890560E+03         1
       5       1  0.5000000000E-01         4    1         4        60  0.4999487706E+00  0.5000000026E+00  0.4999958665E+00  0.9749974385E+04  0.9250000001E+04  0.2700890241E+03         1
       5       1  0.5000000000E-01         5    1         5        80  0.4999487965E+00  0.5000000034E+00  0.4999958710E+00  0.9749974398E+04  0.8750000002E+04  0.2700889791E+03         1
       5       1  0.5000000000E-01         6    1         6       100  0.4999488281E+00  0.5000000039E+00  0.4999958765E+00  0.9749974414E+04  0.8250000002E+04  0.2700889241E+03         1
       5       1  0.5000000000E-01         7    1         7       120  0.4999488630E+00  0.5000000041E+00  0.4999958825E+00  0.9749974431E+04  0.7750000002E+04  0.2700888633E+03         1
       5       1  0.5000000000E-01         8    1         8       140  0.4999488983E+00  0.5000000040E+00  0.4999958886E+00  0.9749974449E+04  0.7250000002E+04  0.2700888020E+03         1
       5       1  0.5000000000E-01         9    1         9       160  0.4999489306E+00  0.5000000034E+00  0.4999958941E+00  0.9749974465E+04  0.6750000002E+04  0.2700887457E+03         1
       5       1  0.5000000000E-01        10    1        10       180  0.4999489568E+00  0.5000000025E+00  0.4999958986E+00  0.9749974478E+04  0.6250000001E+04  0.2700887003E+03         1
       5       1  0.5000000000E-01        11    1        11       200  0.4999489738E+00  0.5000000013E+00  0.4999959015E+00  0.9749974487E+04  0.5750000001E+04  0.2700886707E+03         1
       5       1  0.5000000000E-01        12    1        12       220  0.4999489798E+00  0.5000000000E+00  0.4999959026E+00  0.9749974490E+04  0.5250000000E+04  0.2700886604E+03         1
       5       1  0.5000000000E-01        13    1        13       240  0.4999489738E+00  0.4999999987E+00  0.4999959015E+00  0.9749974487E+04  0.4749999999E+04  0.2700886707E+03         1
       5       1  0.5000000000E-01        14    1        14       260  0.4999489568E+00  0.4999999975E+00  0.4999958986E+00  0.9749974478E+04  0.4249999999E+04  0.2700887003E+03         1
       5       1  0.5000000000E-01        15    1        15       280  0.4999489306E+00  0.4999999966E+00  0.4999958941E+00  0.9749974465E+04  0.3749999998E+04  0.2700887457E+03         1
       5       1  0.5000000000E-01        16    1        16       300  0.4999488983E+00  0.4999999960E+00  0.4999958886E+00  0.9749974449E+04  0.3249999998E+04  0.2700888020E+03         1
       5       1  0.5000000000E-01        17    1        17       320  0.4999488630E+00  0.4999999959E+00  0.4999958825E+00  0.9749974431E+04  0.2749999998E+04  0.2700888633E+03         1
       5       1  0.5000000000E-01        18    1        18       340  0.4999488281E+00  0.4999999961E+00  0.4999958765E+00  0.9749974414E+04  0.2249999998E+04  0.2700889241E+03         1
       5       1  0.5000000000E-01        19    1        19       360  0.4999487965E+00  0.4999999966E+00  0.4999958710E+00  0.9749974398E+04  0.1749999998E+04  0.2700889791E+03         1
       5       1  0.5000000000E-01        20    1        20       380  0.4999487706E+00  0.4999999974E+00  0.4999958665E+00  0.9749974385E+04  0.1249999999E+04  0.2700890241E+03         1
       5       1  0.5000000000E-01        21    1        21       400  0.4999487523E+00  0.4999999984E+00  0.4999958633E+00  0.9749974376E+04  0.7499999992E+03  0.2700890560E+03         1
       5       1  0.5000000000E-01        22    1        22       420  0.4999487429E+00  0.4999999994E+00  0.4999958617E+00  0.9749974371E+04  0.2499999997E+03  0.2700890724E+03         1
       6       1  0.6000000000E-01         1    1         1      1050  0.4999823176E+00  0.5000000000E+00  0.5000017665E+00  0.4749991159E+04  0.5250000000E+04  0.1000003533E+03         3
       6       1  0.6000000000E-01         2    1         2        20  0.4999384909E+00  0.5000000007E+00  0.4999950340E+00  0.9749969245E+04  0.1025000000E+05  0.2700889895E+03         1
       6       1  0.6000000000E-01         3    1         3        40  0.4999385022E+00  0.5000000020E+00  0.4999950360E+00  0.9749969251E+04  0.9750000001E+04  0.2700889731E+03         1
       6       1  0.6000000000E-01         4    1         4        60  0.4999385241E+00  0.5000000031E+00  0.4999950398E+00  0.9749969262E+04  0.9250000002E+04  0.2700889413E+03         1
       6       1  0.6000000000E-01         5    1         5        80  0.4999385551E+00  0.5000000040E+00  0.4999950452E+00  0.9749969278E+04  0.8750000002E+04  0.2700888964E+03         1
       6       1  0.6000000000E-01         6    1         6       100  0.4999385930E+00  0.5000000047E+00  0.4999950517E+00  0.9749969297E+04  0.8250000002E+04  0.2700888415E+03         1
       6       1  0.6000000000E-01         7    1         7       120  0.4999386349E+00  0.5000000049E+00  0.4999950590E+00  0.9749969317E+04  0.7750000002E+04  0.2700887808E+03         1
       6       1  0.6000000000E-01         8    1         8       140  0.4999386773E+00  0.5000000048E+00  0.4999950663E+00  0.9749969339E+04  0.7250000002E+04  0.2700887196E+03         1
       6       1  0.6000000000E-01         9    1         9       160  0.4999387161E+00  0.5000000041E+00  0.4999950730E+00  0.9749969358E+04  0.6750000002E+04  0.2700886635E+03         1
       6       1  0.6000000000E-01        10    1        10       180  0.4999387475E+00  0.5000000030E+00  0.4999950783E+00  0.9749969374E+04  0.6250000002E+04  0.2700886181E+03         1
       6       1  0.6000000000E-01        11    1        11       200  0.4999387680E+00  0.5000000016E+00  0.4999950819E+00  0.9749969384E+04  0.5750000001E+04  0.2700885886E+03         1
       6       1  0.6000000000E-01        12    1        12       220  0.4999387751E+00  0.5000000000E+00  0.4999950831E+00  0.9749969388E+04  0.5250000000E+04  0.2700885783E+03         1
       6       1  0.6000000000E-01        13    1        13       240  0.4999387680E+00  0.4999999984E+00  0.4999950819E+00  0.9749969384E+04  0.4749999999E+04  0.2700885886E+03         1
       6       1  0.6000000000E-01        14    1        14       260  0.4999387475E+00  0.4999999970E+00  0.4999950783E+00  0.9749969374E+04  0.4249999998E+04  0.2700886181E+03         1
       6       1  0.6000000000E-01        15    1        15       280  0.4999387161E+00  0.4999999959E+00  0.4999950730E+00  0.9749969358E+04  0.3749999998E+04  0.2700886635E+03         1
       6       1  0.6000000000E-01        16    1        16       300  0.4999386773E+00  0.4999999952E+00  0.4999950663E+00  0.9749969339E+04  0.3249999998E+04  0.2700887196E+03         1
       6       1  0.6000000000E-01        17    1        17       320  0.4999386349E+00  0.4999999951E+00  0.4999950590E+00  0.9749969317E+04  0.2749999998E+04  0.2700887808E+03         1
       6       1  0.6000000000E-01        18    1        18       340  0.4999385930E+00  0.4999999953E+00  0.4999950517E+00  0.9749969297E+04  0.2249999998E+04  0.2700888415E+03         1
       6       1  0.6000000000E-01        19    1        19       360  0.4999385551E+00  0.4999999960E+00  0.4999950452E+00  0.9749969278E+04  0.1749999998E+04  0.2700888964E+03         1
       6       1  0.6000000000E-01        20    1        20       380  0.4999385241E+00  0.4999999969E+00  0.4999950398E+00  0.9749969262E+04  0.1249999998E+04  0.2700889413E+03         1
       6       1  0.6000000000E-01        21    1        21       400  0.4999385022E+00  0.4999999980E+00  0.4999950360E+00  0.9749969251E+04  0.7499999990E+03  0.2700889731E+03         1
       6       1  0.6000000000E-01        22    1        22       420  0.4999384909E+00  0.4999999993E+00  0.4999950340E+00  0.9749969245E+04  0.2499999997E+03  0.2700889895E+03         1
       7       1  0.7000000000E-01         1    1         1      1050  0.4999793700E+00  0.5000000000E+00  0.5000020609E+00  0.4749989685E+04  0.5250000000E+04  0.1000004122E+03         3
       7       1  0.7000000000E-01         2    1         2        20  0.4999282386E+00  0.5000000008E+00  0.4999942064E+00  0.9749964119E+04  0.1025000000E+05  0.2700889066E+03         1
       7       1  0.7000000000E-01         3    1         3        40  0.4999282518E+00  0.5000000023E+00  0.4999942087E+00  0.9749964126E+04  0.9750000001E+04  0.2700888902E+03         1
       7       1  0.7000000000E-01         4    1         4        60  0.4999282774E+00  0.5000000036E+00  0.4999942131E+00  0.9749964139E+04  0.9250000002E+04  0.2700888585E+03         1