## BTN for MT3DMS, generated by Flopy.
##
        20         1        40         3         1         1
D   M   KG  
T T T F T 
 0 0 0 0 0 0 0 0 0 0 0 0 0 0 0 0 0 0 0 0
         0      0.01                           -1 #delr
         0      0.03                           -1 #delc
         0         0                           -1 #htop
        31         1          (40E15.6)        -1 #dz layer 1
   1.000000E-02   1.000000E-02   1.000000E-02   1.000000E-02   1.000000E-02   1.000000E-02   1.000000E-02   1.000000E-02   1.000000E-02   1.000000E-02   1.000000E-02   1.000000E-02   1.000000E-02   1.000000E-02   1.000000E-02   1.000000E-02   1.000000E-02   1.000000E-02   1.000000E-02   1.000000E-02   1.000000E-02   1.000000E-02   1.000000E-02   1.000000E-02   1.000000E-02   1.000000E-02   1.000000E-02   1.000000E-02   1.000000E-02   1.000000E-02   1.000000E-02   1.000000E-02   1.000000E-02   1.000000E-02   1.000000E-02   1.000000E-02   1.000000E-02   1.000000E-02   1.000000E-02   1.000000E-02
        31         1          (40E15.6)        -1 #dz layer 2
   1.000000E-02   1.000000E-02   1.000000E-02   1.000000E-02   1.000000E-02   1.000000E-02   1.000000E-02   1.000000E-02   1.000000E-02   1.000000E-02   1.000000E-02   1.000000E-02   1.000000E-02   1.000000E-02   1.000000E-02   1.000000E-02   1.000000E-02   1.000000E-02   1.000000E-02   1.000000E-02   1.000000E-02   1.000000E-02   1.000000E-02   1.000000E-02   1.000000E-02   1.000000E-02   1.000000E-02   1.000000E-02   1.000000E-02   1.000000E-02   1.000000E-02   1.000000E-02   1.000000E-02   1.000000E-02   1.000000E-02   1.000000E-02   1.000000E-02   1.000000E-02   1.000000E-02   1.000000E-02
        31         1          (40E15.6)        -1 #dz layer 3
   1.000000E-02   1.000000E-02   1.000000E-02   1.000000E-02   1.000000E-02   1.000000E-02   1.000000E-02   1.000000E-02   1.000000E-02   1.000000E-02   1.000000E-02   1.000000E-02   1.000000E-02   1.000000E-02   1.000000E-02   1.000000E-02   1.000000E-02   1.000000E-02   1.000000E-02   1.000000E-02   1.000000E-02   1.000000E-02   1.000000E-02   1.000000E-02   1.000000E-02   1.000000E-02   1.000000E-02   1.000000E-02   1.000000E-02   1.000000E-02   1.000000E-02   1.000000E-02   1.000000E-02   1.000000E-02   1.000000E-02   1.000000E-02   1.000000E-02   1.000000E-02   1.000000E-02   1.000000E-02
        31         1          (40E15.6)        -1 #dz layer 4
   1.000000E-02   1.000000E-02   1.000000E-02   1.000000E-02   1.000000E-02   1.000000E-02   1.000000E-02   1.000000E-02   1.000000E-02   1.000000E-02   1.000000E-02   1.000000E-02   1.000000E-02   1.000000E-02   1.000000E-02   1.000000E-02   1.000000E-02   1.000000E-02   1.000000E-02   1.000000E-02   1.000000E-02   1.000000E-02   1.000000E-02   1.000000E-02   1.000000E-02   1.000000E-02   1.000000E-02   1.000000E-02   1.000000E-02   1.000000E-02   1.000000E-02   1.000000E-02   1.000000E-02   1.000000E-02   1.000000E-02   1.000000E-02   1.000000E-02   1.000000E-02   1.000000E-02   1.000000E-02
        31         1          (40E15.6)        -1 #dz layer 5
   1.000000E-02   1.000000E-02   1.000000E-02   1.000000E-02   1.000000E-02   1.000000E-02   1.000000E-02   1.000000E-02   1.000000E-02   1.000000E-02   1.000000E-02   1.000000E-02   1.000000E-02   1.000000E-02   1.000000E-02   1.000000E-02   1.000000E-02   1.000000E-02   1.000000E-02   1.000000E-02   1.000000E-02   1.000000E-02   1.000000E-02   1.000000E-02   1.000000E-02   1.000000E-02   1.000000E-02   1.000000E-02   1.000000E-02   1.000000E-02   1.000000E-02   1.000000E-02   1.000000E-02   1.000000E-02   1.000000E-02   1.000000E-02   1.000000E-02   1.000000E-02   1.000000E-02   1.000000E-02
        31         1          (40E15.6)        -1 #dz layer 6
   9.999998E-03   9.999998E-03   9.999998E-03   9.999998E-03   9.999998E-03   9.999998E-03   9.999998E-03   9.999998E-03   9.999998E-03   9.999998E-03   9.999998E-03   9.999998E-03   9.999998E-03   9.999998E-03   9.999998E-03   9.999998E-03   9.999998E-03   9.999998E-03   9.999998E-03   9.999998E-03   9.999998E-03   9.999998E-03   9.999998E-03   9.999998E-03   9.999998E-03   9.999998E-03   9.999998E-03   9.999998E-03   9.999998E-03   9.999998E-03   9.999998E-03   9.999998E-03   9.999998E-03   9.999998E-03   9.999998E-03   9.999998E-03   9.999998E-03   9.999998E-03   9.999998E-03   9.999998E-03
        31         1          (40E15.6)        -1 #dz layer 7
   1.000000E-02   1.000000E-02   1.000000E-02   1.000000E-02   1.000000E-02   1.000000E-02   1.000000E-02   1.000000E-02   1.000000E-02   1.000000E-02   1.000000E-02   1.000000E-02   1.000000E-02   1.000000E-02   1.000000E-02   1.000000E-02   1.000000E-02   1.000000E-02   1.000000E-02   1.000000E-02   1.000000E-02   1.000000E-02   1.000000E-02   1.000000E-02   1.000000E-02   1.000000E-02   1.000000E-02   1.000000E-02   1.000000E-02   1.000000E-02   1.000000E-02   1.000000E-02   1.000000E-02   1.000000E-02   1.000000E-02   1.000000E-02   1.000000E-02   1.000000E-02   1.000000E-02   1.000000E-02
        31         1          (40E15.6)        -1 #dz layer 8
   9.999998E-03   9.999998E-03   9.999998E-03   9.999998E-03   9.999998E-03   9.999998E-03   9.999998E-03   9.999998E-03   9.999998E-03   9.999998E-03   9.999998E-03   9.999998E-03   9.999998E-03   9.999998E-03   9.999998E-03   9.999998E-03   9.999998E-03   9.999998E-03   9.999998E-03   9.999998E-03   9.999998E-03   9.999998E-03   9.999998E-03   9.999998E-03   9.999998E-03   9.999998E-03   9.999998E-03   9.999998E-03   9.999998E-03   9.999998E-03   9.999998E-03   9.999998E-03   9.999998E-03   9.999998E-03   9.999998E-03   9.999998E-03   9.999998E-03   9.999998E-03   9.999998E-03   9.999998E-03
        31         1          (40E15.6)        -1 #dz layer 9
   1.000001E-02   1.000001E-02   1.000001E-02   1.000001E-02   1.000001E-02   1.000001E-02   1.000001E-02   1.000001E-02   1.000001E-02   1.000001E-02   1.000001E-02   1.000001E-02   1.000001E-02   1.000001E-02   1.000001E-02   1.000001E-02   1.000001E-02   1.000001E-02   1.000001E-02   1.000001E-02   1.000001E-02   1.000001E-02   1.000001E-02   1.000001E-02   1.000001E-02   1.000001E-02   1.000001E-02   1.000001E-02   1.000001E-02   1.000001E-02   1.000001E-02   1.000001E-02   1.000001E-02   1.000001E-02   1.000001E-02   1.000001E-02   1.000001E-02   1.000001E-02   1.000001E-02   1.000001E-02
        31         1          (40E15.6)        -1 #dz layer 10
   9.999998E-03   9.999998E-03   9.999998E-03   9.999998E-03   9.999998E-03   9.999998E-03   9.999998E-03   9.999998E-03   9.999998E-03   9.999998E-03   9.999998E-03   9.999998E-03   9.999998E-03   9.999998E-03   9.999998E-03   9.999998E-03   9.999998E-03   9.999998E-03   9.999998E-03   9.999998E-03   9.999998E-03   9.999998E-03   9.999998E-03   9.999998E-03   9.999998E-03   9.999998E-03   9.999998E-03   9.999998E-03   9.999998E-03   9.999998E-03   9.999998E-03   9.999998E-03   9.999998E-03   9.999998E-03   9.999998E-03   9.999998E-03   9.999998E-03   9.999998E-03   9.999998E-03   9.999998E-03
        31         1          (40E15.6)        -1 #dz layer 11
   9.999998E-03   9.999998E-03   9.999998E-03   9.999998E-03   9.999998E-03   9.999998E-03   9.999998E-03   9.999998E-03   9.999998E-03   9.999998E-03   9.999998E-03   9.999998E-03   9.999998E-03   9.999998E-03   9.999998E-03   9.999998E-03   9.999998E-03   9.999998E-03   9.999998E-03   9.999998E-03   9.999998E-03   9.999998E-03   9.999998E-03   9.999998E-03   9.999998E-03   9.999998E-03   9.999998E-03   9.999998E-03   9.999998E-03   9.999998E-03   9.999998E-03   9.999998E-03   9.999998E-03   9.999998E-03   9.999998E-03   9.999998E-03   9.999998E-03   9.999998E-03   9.999998E-03   9.999998E-03
        31         1          (40E15.6)        -1 #dz layer 12
   9.999998E-03   9.999998E-03   9.999998E-03   9.999998E-03   9.999998E-03   9.999998E-03   9.999998E-03   9.999998E-03   9.999998E-03   9.999998E-03   9.999998E-03   9.999998E-03   9.999998E-03   9.999998E-03   9.999998E-03   9.999998E-03   9.999998E-03   9.999998E-03   9.999998E-03   9.999998E-03   9.999998E-03   9.999998E-03   9.999998E-03   9.999998E-03   9.999998E-03   9.999998E-03   9.999998E-03   9.999998E-03   9.999998E-03   9.999998E-03   9.999998E-03   9.999998E-03   9.999998E-03   9.999998E-03   9.999998E-03   9.999998E-03   9.999998E-03   9.999998E-03   9.999998E-03   9.999998E-03
        31         1          (40E15.6)        -1 #dz layer 13
   9.999998E-03   9.999998E-03   9.999998E-03   9.999998E-03   9.999998E-03   9.999998E-03   9.999998E-03   9.999998E-03   9.999998E-03   9.999998E-03   9.999998E-03   9.999998E-03   9.999998E-03   9.999998E-03   9.999998E-03   9.999998E-03   9.999998E-03   9.999998E-03   9.999998E-03   9.999998E-03   9.999998E-03   9.999998E-03   9.999998E-03   9.999998E-03   9.999998E-03   9.999998E-03   9.999998E-03   9.999998E-03   9.999998E-03   9.999998E-03   9.999998E-03   9.999998E-03   9.999998E-03   9.999998E-03   9.999998E-03   9.999998E-03   9.999998E-03   9.999998E-03   9.999998E-03   9.999998E-03
        31         1          (40E15.6)        -1 #dz layer 14
   1.000001E-02   1.000001E-02   1.000001E-02   1.000001E-02   1.000001E-02   1.000001E-02   1.000001E-02   1.000001E-02   1.000001E-02   1.000001E-02   1.000001E-02   1.000001E-02   1.000001E-02   1.000001E-02   1.000001E-02   1.000001E-02   1.000001E-02   1.000001E-02   1.000001E-02   1.000001E-02   1.000001E-02   1.000001E-02   1.000001E-02   1.000001E-02   1.000001E-02   1.000001E-02   1.000001E-02   1.000001E-02   1.000001E-02   1.000001E-02   1.000001E-02   1.000001E-02   1.000001E-02   1.000001E-02   1.000001E-02   1.000001E-02   1.000001E-02   1.000001E-02   1.000001E-02   1.000001E-02
        31         1          (40E15.6)        -1 #dz layer 15
   1.000001E-02   1.000001E-02   1.000001E-02   1.000001E-02   1.000001E-02   1.000001E-02   1.000001E-02   1.000001E-02   1.000001E-02   1.000001E-02   1.000001E-02   1.000001E-02   1.000001E-02   1.000001E-02   1.000001E-02   1.000001E-02   1.000001E-02   1.000001E-02   1.000001E-02   1.000001E-02   1.000001E-02   1.000001E-02   1.000001E-02   1.000001E-02   1.000001E-02   1.000001E-02   1.000001E-02   1.000001E-02   1.000001E-02   1.000001E-02   1.000001E-02   1.000001E-02   1.000001E-02   1.000001E-02   1.000001E-02   1.000001E-02   1.000001E-02   1.000001E-02   1.000001E-02   1.000001E-02
        31         1          (40E15.6)        -1 #dz layer 16
   9.999990E-03   9.999990E-03   9.999990E-03   9.999990E-03   9.999990E-03   9.999990E-03   9.999990E-03   9.999990E-03   9.999990E-03   9.999990E-03   9.999990E-03   9.999990E-03   9.999990E-03   9.999990E-03   9.999990E-03   9.999990E-03   9.999990E-03   9.999990E-03   9.999990E-03   9.999990E-03   9.999990E-03   9.999990E-03   9.999990E-03   9.999990E-03   9.999990E-03   9.999990E-03   9.999990E-03   9.999990E-03   9.999990E-03   9.999990E-03   9.999990E-03   9.999990E-03   9.999990E-03   9.999990E-03   9.999990E-03   9.999990E-03   9.999990E-03   9.999990E-03   9.999990E-03   9.999990E-03
        31         1          (40E15.6)        -1 #dz layer 17
   1.000001E-02   1.000001E-02   1.000001E-02   1.000001E-02   1.000001E-02   1.000001E-02   1.000001E-02   1.000001E-02   1.000001E-02   1.000001E-02   1.000001E-02   1.000001E-02   1.000001E-02   1.000001E-02   1.000001E-02   1.000001E-02   1.000001E-02   1.000001E-02   1.000001E-02   1.000001E-02   1.000001E-02   1.000001E-02   1.000001E-02   1.000001E-02   1.000001E-02   1.000001E-02   1.000001E-02   1.000001E-02   1.000001E-02   1.000001E-02   1.000001E-02   1.000001E-02   1.000001E-02   1.000001E-02   1.000001E-02   1.000001E-02   1.000001E-02   1.000001E-02   1.000001E-02   1.000001E-02
        31         1          (40E15.6)        -1 #dz layer 18
   1.000001E-02   1.000001E-02   1.000001E-02   1.000001E-02   1.000001E-02   1.000001E-02   1.000001E-02   1.000001E-02   1.000001E-02   1.000001E-02   1.000001E-02   1.000001E-02   1.000001E-02   1.000001E-02   1.000001E-02   1.000001E-02   1.000001E-02   1.000001E-02   1.000001E-02   1.000001E-02   1.000001E-02   1.000001E-02   1.000001E-02   1.000001E-02   1.000001E-02   1.000001E-02   1.000001E-02   1.000001E-02   1.000001E-02   1.000001E-02   1.000001E-02   1.000001E-02   1.000001E-02   1.000001E-02   1.000001E-02   1.000001E-02   1.000001E-02   1.000001E-02   1.000001E-02   1.000001E-02
        31         1          (40E15.6)        -1 #dz layer 19
   9.999990E-03   9.999990E-03   9.999990E-03   9.999990E-03   9.999990E-03   9.999990E-03   9.999990E-03   9.999990E-03   9.999990E-03   9.999990E-03   9.999990E-03   9.999990E-03   9.999990E-03   9.999990E-03   9.999990E-03   9.999990E-03   9.999990E-03   9.999990E-03   9.999990E-03   9.999990E-03   9.999990E-03   9.999990E-03   9.999990E-03   9.999990E-03   9.999990E-03   9.999990E-03   9.999990E-03   9.999990E-03   9.999990E-03   9.999990E-03   9.999990E-03   9.999990E-03   9.999990E-03   9.999990E-03   9.999990E-03   9.999990E-03   9.999990E-03   9.999990E-03   9.999990E-03   9.999990E-03
        31         1          (40E15.6)        -1 #dz layer 20
   1.000001E-02   1.000001E-02   1.000001E-02   1.000001E-02   1.000001E-02   1.000001E-02   1.000001E-02   1.000001E-02   1.000001E-02   1.000001E-02   1.000001E-02   1.000001E-02   1.000001E-02   1.000001E-02   1.000001E-02   1.000001E-02   1.000001E-02   1.000001E-02   1.000001E-02   1.000001E-02   1.000001E-02   1.000001E-02   1.000001E-02   1.000001E-02   1.000001E-02   1.000001E-02   1.000001E-02   1.000001E-02   1.000001E-02   1.000001E-02   1.000001E-02   1.000001E-02   1.000001E-02   1.000001E-02   1.000001E-02   1.000001E-02   1.000001E-02   1.000001E-02   1.000001E-02   1.000001E-02
        31         1          (40E15.6)        -1 #prsity layer 1
   4.000000E-01   4.000000E-01   4.000000E-01   4.000000E-01   4.000000E-01   4.000000E-01   4.000000E-01   4.000000E-01   4.000000E-01   4.000000E-01   4.000000E-01   4.000000E-01   4.000000E-01   4.000000E-01   4.000000E-01   4.000000E-01   4.000000E-01   4.000000E-01   4.000000E-01   4.000000E-01   4.000000E-01   4.000000E-01   4.000000E-01   4.000000E-01   4.000000E-01   4.000000E-01   4.000000E-01   4.000000E-01   4.000000E-01   4.000000E-01   4.000000E-01   4.000000E-01   4.000000E-01   4.000000E-01   4.000000E-01   4.000000E-01   4.000000E-01   4.000000E-01   4.000000E-01   4.000000E-01
        31         1          (40E15.6)        -1 #prsity layer 2
   4.000000E-01   4.000000E-01   4.000000E-01   4.000000E-01   4.000000E-01   4.000000E-01   4.000000E-01   4.000000E-01   4.000000E-01   4.000000E-01   4.000000E-01   4.000000E-01   4.000000E-01   4.000000E-01   4.000000E-01   4.000000E-01   4.000000E-01   4.000000E-01   4.000000E-01   4.000000E-01   4.000000E-01   4.000000E-01   4.000000E-01   4.000000E-01   4.000000E-01   4.000000E-01   4.000000E-01   4.000000E-01   4.000000E-01   4.000000E-01   4.000000E-01   4.000000E-01   4.000000E-01   4.000000E-01   4.000000E-01   4.000000E-01   4.000000E-01   4.000000E-01   4.000000E-01   4.000000E-01
        31         1          (40E15.6)        -1 #prsity layer 3
   4.000000E-01   4.000000E-01   4.000000E-01   4.000000E-01   4.000000E-01   4.000000E-01   4.000000E-01   4.000000E-01   4.000000E-01   4.000000E-01   4.000000E-01   4.000000E-01   4.000000E-01   4.000000E-01   4.000000E-01   4.000000E-01   4.000000E-01   4.000000E-01   4.000000E-01   4.000000E-01   4.000000E-01   4.000000E-01   4.000000E-01   4.000000E-01   4.000000E-01   4.000000E-01   4.000000E-01   4.000000E-01   4.000000E-01   4.000000E-01   4.000000E-01   4.000000E-01   4.000000E-01   4.000000E-01   4.000000E-01   4.000000E-01   4.000000E-01   4.000000E-01   4.000000E-01   4.000000E-01
        31         1          (40E15.6)        -1 #prsity layer 4
   4.000000E-01   4.000000E-01   4.000000E-01   4.000000E-01   4.000000E-01   4.000000E-01   4.000000E-01   4.000000E-01   4.000000E-01   4.000000E-01   4.000000E-01   4.000000E-01   4.000000E-01   4.000000E-01   4.000000E-01   4.000000E-01   4.000000E-01   4.000000E-01   4.000000E-01   4.000000E-01   4.000000E-01   4.000000E-01   4.000000E-01   4.000000E-01   4.000000E-01   4.000000E-01   4.000000E-01   4.000000E-01   4.000000E-01   4.000000E-01   4.000000E-01   4.000000E-01   4.000000E-01   4.000000E-01   4.000000E-01   4.000000E-01   4.000000E-01   4.000000E-01   4.000000E-01   4.000000E-01
        31         1          (40E15.6)        -1 #prsity layer 5
   4.000000E-01   4.000000E-01   4.000000E-01   4.000000E-01   4.000000E-01   4.000000E-01   4.000000E-01   4.000000E-01   4.000000E-01   4.000000E-01   4.000000E-01   4.000000E-01   4.000000E-01   4.000000E-01   4.000000E-01   4.000000E-01   4.000000E-01   4.000000E-01   4.000000E-01   4.000000E-01   4.000000E-01   4.000000E-01   4.000000E-01   4.000000E-01   4.000000E-01   4.000000E-01   4.000000E-01   4.000000E-01   4.000000E-01   4.000000E-01   4.000000E-01   4.000000E-01   4.000000E-01   4.000000E-01   4.000000E-01   4.000000E-01   4.000000E-01   4.000000E-01   4.000000E-01   4.000000E-01
        31         1          (40E15.6)        -1 #prsity layer 6
   4.000000E-01   4.000000E-01   4.000000E-01   4.000000E-01   4.000000E-01   4.000000E-01   4.000000E-01   5.000000E-01   5.000000E-01   5.000000E-01   5.000000E-01   5.000000E-01   5.000000E-01   5.000000E-01   5.000000E-01   5.000000E-01   5.000000E-01   5.000000E-01   5.000000E-01   5.000000E-01   5.000000E-01   5.000000E-01   5.000000E-01   5.000000E-01   5.000000E-01   5.000000E-01   5.000000E-01   5.000000E-01   5.000000E-01   5.000000E-01   5.000000E-01   5.000000E-01   4.000000E-01   4.000000E-01   4.000000E-01   4.000000E-01   4.000000E-01   4.000000E-01   4.000000E-01   4.000000E-01
        31         1          (40E15.6)        -1 #prsity layer 7
   4.000000E-01   4.000000E-01   4.000000E-01   4.000000E-01   4.000000E-01   4.000000E-01   4.000000E-01   5.000000E-01   5.000000E-01   5.000000E-01   5.000000E-01   5.000000E-01   5.000000E-01   5.000000E-01   5.000000E-01   5.000000E-01   5.000000E-01   5.000000E-01   5.000000E-01   5.000000E-01   5.000000E-01   5.000000E-01   5.000000E-01   5.000000E-01   5.000000E-01   5.000000E-01   5.000000E-01   5.000000E-01   5.000000E-01   5.000000E-01   5.000000E-01   5.000000E-01   4.000000E-01   4.000000E-01   4.000000E-01   4.000000E-01   4.000000E-01   4.000000E-01   4.000000E-01   4.000000E-01
        31         1          (40E15.6)        -1 #prsity layer 8
   4.000000E-01   4.000000E-01   4.000000E-01   4.000000E-01   4.000000E-01   4.000000E-01   4.000000E-01   5.000000E-01   5.000000E-01   5.000000E-01   5.000000E-01   5.000000E-01   5.000000E-01   5.000000E-01   5.000000E-01   5.000000E-01   5.000000E-01   5.000000E-01   5.000000E-01   5.000000E-01   5.000000E-01   5.000000E-01   5.000000E-01   5.000000E-01   5.000000E-01   5.000000E-01   5.000000E-01   5.000000E-01   5.000000E-01   5.000000E-01   5.000000E-01   5.000000E-01   4.000000E-01   4.000000E-01   4.000000E-01   4.000000E-01   4.000000E-01   4.000000E-01   4.000000E-01   4.000000E-01
        31         1          (40E15.6)        -1 #prsity layer 9
   4.000000E-01   4.000000E-01   4.000000E-01   4.000000E-01   4.000000E-01   4.000000E-01   4.000000E-01   5.000000E-01   5.000000E-01   5.000000E-01   5.000000E-01   5.000000E-01   5.000000E-01   5.000000E-01   5.000000E-01   5.000000E-01   5.000000E-01   5.000000E-01   5.000000E-01   5.000000E-01   5.000000E-01   5.000000E-01   5.000000E-01   5.000000E-01   5.000000E-01   5.000000E-01   5.000000E-01   5.000000E-01   5.000000E-01   5.000000E-01   5.000000E-01   5.000000E-01   4.000000E-01   4.000000E-01   4.000000E-01   4.000000E-01   4.000000E-01   4.000000E-01   4.000000E-01   4.000000E-01
        31         1          (40E15.6)        -1 #prsity layer 10
   4.000000E-01   4.000000E-01   4.000000E-01   4.000000E-01   4.000000E-01   4.000000E-01   4.000000E-01   5.000000E-01   5.000000E-01   5.000000E-01   5.000000E-01   5.000000E-01   5.000000E-01   5.000000E-01   5.000000E-01   5.000000E-01   5.000000E-01   5.000000E-01   5.000000E-01   5.000000E-01   5.000000E-01   5.000000E-01   5.000000E-01   5.000000E-01   5.000000E-01   5.000000E-01   5.000000E-01   5.000000E-01   5.000000E-01   5.000000E-01   5.000000E-01   5.000000E-01   4.000000E-01   4.000000E-01   4.000000E-01   4.000000E-01   4.000000E-01   4.000000E-01   4.000000E-01   4.000000E-01
        31         1          (40E15.6)        -1 #prsity layer 11
   4.000000E-01   4.000000E-01   4.000000E-01   4.000000E-01   4.000000E-01   4.000000E-01   4.000000E-01   4.000000E-01   4.000000E-01   4.000000E-01   4.000000E-01   4.000000E-01   4.000000E-01   4.000000E-01   4.000000E-01   4.000000E-01   4.000000E-01   4.000000E-01   4.000000E-01   4.000000E-01   4.000000E-01   4.000000E-01   4.000000E-01   4.000000E-01   4.000000E-01   4.000000E-01   4.000000E-01   4.000000E-01   4.000000E-01   4.000000E-01   4.000000E-01   4.000000E-01   4.000000E-01   4.000000E-01   4.000000E-01   4.000000E-01   4.000000E-01   4.000000E-01   4.000000E-01   4.000000E-01
        31         1          (40E15.6)        -1 #prsity layer 12
   4.000000E-01   4.000000E-01   4.000000E-01   4.000000E-01   4.000000E-01   4.000000E-01   4.000000E-01   4.000000E-01   4.000000E-01   4.000000E-01   4.000000E-01   4.000000E-01   4.000000E-01   4.000000E-01   4.000000E-01   4.000000E-01   4.000000E-01   4.000000E-01   4.000000E-01   4.000000E-01   4.000000E-01   4.000000E-01   4.000000E-01   4.000000E-01   4.000000E-01   4.000000E-01   4.000000E-01   4.000000E-01   4.000000E-01   4.000000E-01   4.000000E-01   4.000000E-01   4.000000E-01   4.000000E-01   4.000000E-01   4.000000E-01   4.000000E-01   4.000000E-01   4.000000E-01   4.000000E-01
        31         1          (40E15.6)        -1 #prsity layer 13
   4.000000E-01   4.000000E-01   4.000000E-01   4.000000E-01   4.000000E-01   4.000000E-01   4.000000E-01   4.000000E-01   4.000000E-01   4.000000E-01   4.000000E-01   4.000000E-01   4.000000E-01   4.000000E-01   4.000000E-01   4.000000E-01   4.000000E-01   4.000000E-01   4.000000E-01   4.000000E-01   4.000000E-01   4.000000E-01   4.000000E-01   4.000000E-01   4.000000E-01   4.000000E-01   4.000000E-01   4.000000E-01   4.000000E-01   4.000000E-01   4.000000E-01   4.000000E-01   4.000000E-01   4.000000E-01   4.000000E-01   4.000000E-01   4.000000E-01   4.000000E-01   4.000000E-01   4.000000E-01
        31         1          (40E15.6)        -1 #prsity layer 14
   4.000000E-01   4.000000E-01   4.000000E-01   4.000000E-01   4.000000E-01   4.000000E-01   4.000000E-01   4.000000E-01   4.000000E-01   4.000000E-01   4.000000E-01   4.000000E-01   4.000000E-01   4.000000E-01   4.000000E-01   4.000000E-01   4.000000E-01   4.000000E-01   4.000000E-01   4.000000E-01   4.000000E-01   4.000000E-01   4.000000E-01   4.000000E-01   4.000000E-01   4.000000E-01   4.000000E-01   4.000000E-01   4.000000E-01   4.000000E-01   4.000000E-01   4.000000E-01   4.000000E-01   4.000000E-01   4.000000E-01   4.000000E-01   4.000000E-01   4.000000E-01   4.000000E-01   4.000000E-01
        31         1          (40E15.6)        -1 #prsity layer 15
   4.000000E-01   4.000000E-01   4.000000E-01   4.000000E-01   4.000000E-01   4.000000E-01   4.000000E-01   4.000000E-01   4.000000E-01   4.000000E-01   4.000000E-01   4.000000E-01   4.000000E-01   4.000000E-01   4.000000E-01   4.000000E-01   4.000000E-01   4.000000E-01   4.000000E-01   4.000000E-01   4.000000E-01   4.000000E-01   4.000000E-01   4.000000E-01   4.000000E-01   4.000000E-01   4.000000E-01   4.000000E-01   4.000000E-01   4.000000E-01   4.000000E-01   4.000000E-01   4.000000E-01   4.000000E-01   4.000000E-01   4.000000E-01   4.000000E-01   4.000000E-01   4.000000E-01   4.000000E-01
        31         1          (40E15.6)        -1 #prsity layer 16
   4.000000E-01   4.000000E-01   4.000000E-01   4.000000E-01   4.000000E-01   4.000000E-01   4.000000E-01   4.000000E-01   4.000000E-01   4.000000E-01   4.000000E-01   4.000000E-01   4.000000E-01   4.000000E-01   4.000000E-01   4.000000E-01   4.000000E-01   4.000000E-01   4.000000E-01   4.000000E-01   4.000000E-01   4.000000E-01   4.000000E-01   4.000000E-01   4.000000E-01   4.000000E-01   4.000000E-01   4.000000E-01   4.000000E-01   4.000000E-01   4.000000E-01   4.000000E-01   4.000000E-01   4.000000E-01   4.000000E-01   4.000000E-01   4.000000E-01   4.000000E-01   4.000000E-01   4.000000E-01
        31         1          (40E15.6)        -1 #prsity layer 17
   4.000000E-01   4.000000E-01   4.000000E-01   4.000000E-01   4.000000E-01   4.000000E-01   4.000000E-01   4.000000E-01   4.000000E-01   4.000000E-01   4.000000E-01   4.000000E-01   4.000000E-01   4.000000E-01   4.000000E-01   4.000000E-01   4.000000E-01   4.000000E-01   4.000000E-01   4.000000E-01   4.000000E-01   4.000000E-01   4.000000E-01   4.000000E-01   4.000000E-01   4.000000E-01   4.000000E-01   4.000000E-01   4.000000E-01   4.000000E-01   4.000000E-01   4.000000E-01   4.000000E-01   4.000000E-01   4.000000E-01   4.000000E-01   4.000000E-01   4.000000E-01   4.000000E-01   4.000000E-01
        31         1          (40E15.6)        -1 #prsity layer 18
   4.000000E-01   4.000000E-01   4.000000E-01   4.000000E-01   4.000000E-01   4.000000E-01   4.000000E-01   4.000000E-01   4.000000E-01   4.000000E-01   4.000000E-01   4.000000E-01   4.000000E-01   4.000000E-01   4.000000E-01   4.000000E-01   4.000000E-01   4.000000E-01   4.000000E-01   4.000000E-01   4.000000E-01   4.000000E-01   4.000000E-01   4.000000E-01   4.000000E-01   4.000000E-01   4.000000E-01   4.000000E-01   4.000000E-01   4.000000E-01   4.000000E-01   4.000000E-01   4.000000E-01   4.000000E-01   4.000000E-01   4.000000E-01   4.000000E-01   4.000000E-01   4.000000E-01   4.000000E-01
        31         1          (40E15.6)        -1 #prsity layer 19
   4.000000E-01   4.000000E-01   4.000000E-01   4.000000E-01   4.000000E-01   4.000000E-01   4.000000E-01   4.000000E-01   4.000000E-01   4.000000E-01   4.000000E-01   4.000000E-01   4.000000E-01   4.000000E-01   4.000000E-01   4.000000E-01   4.000000E-01   4.000000E-01   4.000000E-01   4.000000E-01   4.000000E-01   4.000000E-01   4.000000E-01   4.000000E-01   4.000000E-01   4.000000E-01   4.000000E-01   4.000000E-01   4.000000E-01   4.000000E-01   4.000000E-01   4.000000E-01   4.000000E-01   4.000000E-01   4.000000E-01   4.000000E-01   4.000000E-01   4.000000E-01   4.000000E-01   4.000000E-01
        31         1          (40E15.6)        -1 #prsity layer 20
   4.000000E-01   4.000000E-01   4.000000E-01   4.000000E-01   4.000000E-01   4.000000E-01   4.000000E-01   4.000000E-01   4.000000E-01   4.000000E-01   4.000000E-01   4.000000E-01   4.000000E-01   4.000000E-01   4.000000E-01   4.000000E-01   4.000000E-01   4.000000E-01   4.000000E-01   4.000000E-01   4.000000E-01   4.000000E-01   4.000000E-01   4.000000E-01   4.000000E-01   4.000000E-01   4.000000E-01   4.000000E-01   4.000000E-01   4.000000E-01   4.000000E-01   4.000000E-01   4.000000E-01   4.000000E-01   4.000000E-01   4.000000E-01   4.000000E-01   4.000000E-01   4.000000E-01   4.000000E-01
        31         1            (40I10)        -1 #icbund layer 1
         1         1         1         1         1         1         1         1         1         1         1         1         1         1         1         1         1         1         1         1         1         1         1         1         1         1         1         1         1         1         1         1         1         1         1         1         1         1         1         1
        31         1            (40I10)        -1 #icbund layer 2
         1         1         1         1         1         1         1         1         1         1         1         1         1         1         1         1         1         1         1         1         1         1         1         1         1         1         1         1         1         1         1         1         1         1         1         1         1         1         1         1
        31         1            (40I10)        -1 #icbund layer 3
         1         1         1         1         1         1         1         1         1         1         1         1         1         1         1         1         1         1         1         1         1         1         1         1         1         1         1         1         1         1         1         1         1         1         1         1         1         1         1         1
        31         1            (40I10)        -1 #icbund layer 4
         1         1         1         1         1         1         1         1         1         1         1         1         1         1         1         1         1         1         1         1         1         1         1         1         1         1         1         1         1         1         1         1         1         1         1         1         1         1         1         1
        31         1            (40I10)        -1 #icbund layer 5
         1         1         1         1         1         1         1         1         1         1         1         1         1         1         1         1         1         1         1         1         1         1         1         1         1         1         1         1         1         1         1         1         1         1         1         1         1         1         1         1
        31         1            (40I10)        -1 #icbund layer 6
         1         1         1         1         1         1         1         1         1         1         1         1         1         1         1         1         1         1         1         1         1         1         1         1         1         1         1         1         1         1         1         1         1         1         1         1         1         1         1         1
        31         1            (40I10)        -1 #icbund layer 7