# File generated by Flopy version 3.9.1 on 04/04/2025 at 17:58:29.
BEGIN options
END options

BEGIN continuous  FILEOUT  ex-gwf-fhb.obs.flow.csv
  icf1  flow-ja-face  1 2 2  1 2 1
END continuous  FILEOUT  ex-gwf-fhb.obs.flow.csv

BEGIN continuous  FILEOUT  ex-gwf-fhb.obs.head.csv
  h1_2_1  head  1 2 1
  h1_2_10  head  1 2 10
END continuous  FILEOUT  ex-gwf-fhb.obs.head.csv

