# File generated by Flopy version 3.9.1 on 04/04/2025 at 17:58:29.
BEGIN options
  TS6  FILEIN  ex-gwf-fhb.wel.ts
END options

BEGIN dimensions
  MAXBOUND  1
END dimensions

BEGIN period  1
  1 2 1 FLOWRATE
END period  1

