# File generated by Flopy version 3.9.1 on 04/08/2025 at 07:46:44.
BEGIN options
  BUDGET  FILEOUT  ex-gwf-fhb.bud
  HEAD  FILEOUT  ex-gwf-fhb.hds
  HEAD  PRINT_FORMAT  COLUMNS  10  WIDTH  15  DIGITS  6  GENERAL
END options

BEGIN period  1
  SAVE  HEAD  ALL
  SAVE  BUDGET  ALL
  PRINT  HEAD  ALL
  PRINT  BUDGET  ALL
END period  1

