# File generated by Flopy version 3.9.1 on 04/08/2025 at 07:46:44.
BEGIN options
END options

BEGIN griddata
  strt
    CONSTANT       0.00000000
END griddata

