# MPSIM package for MODPATH 7 generated by Flopy 3.8.2
freyberg_mp.mpnam
freyberg_mp.mplst
4 1 2 2 1 0
freyberg_mp.mpend
freyberg_mp.mppth
freyberg_mp.timeseries
0
2
1 1 0
2
2
1
   0.000000E+00
2
-1
CONSTANT          0                                #zones layer 1                 
1
4
PG1
1
0.0
EXTERNAL freyberg.pg1.sloc
PG2
1
0.0
EXTERNAL freyberg.pg2.sloc
PG3
1
0.0
EXTERNAL freyberg.pg3.sloc
PG4
1
0.0
EXTERNAL freyberg.pg4.sloc
