# File generated by Flopy version 3.8.2 on 08/29/2025 at 14:22:26.
BEGIN OPTIONS
  READASARRAYS
  PRINT_INPUT
  PRINT_FLOWS
  SAVE_FLOWS
END OPTIONS

BEGIN PERIOD  1
  recharge
    CONSTANT  1.60000000E-09
END PERIOD  1

