# File generated by Flopy version 3.10.0.dev3 on 06/16/2025 at 06:44:19.
BEGIN options
  SAVE_FLOWS
END options

BEGIN griddata
  iconvert
    CONSTANT  1
  ss
    CONSTANT  1.00000000E-05
  sy
    CONSTANT       0.20000000
END griddata

BEGIN period  1
  STEADY-STATE
END period  1

