# File generated by Flopy version 3.9.1 on 06/14/2025 at 10:34:05.
BEGIN options
  PRINT_INPUT
  PRINT_FLOWS
  SAVE_FLOWS
END options

BEGIN packages
  DIS6  freyberg_1.dis  dis
  IC6  freyberg_1.ic  ic
  OC6  freyberg_1.oc  oc
  NPF6  freyberg_1.npf  npf
  STO6  freyberg_1.sto  sto
  CHD6  freyberg_1.chd  chd-1
  RIV6  freyberg_1.riv  riv-1
  WEL6  freyberg_1.wel  wel-1
  RCH6  freyberg_1.rcha  rch-1
END packages

