# File generated by Flopy version 3.9.1 on 06/14/2025 at 10:34:05.
BEGIN options
  TIME_UNITS  seconds
END options

BEGIN dimensions
  NPER  1
END dimensions

BEGIN perioddata
      10.00000000  1       1.20000000
END perioddata

