# File generated by Flopy version 3.9.1 on 06/14/2025 at 10:34:05.
BEGIN options
  LENGTH_UNITS  meters
  XORIGIN       0.00000000
  YORIGIN       0.00000000
END options

BEGIN dimensions
  NLAY  1
  NROW  40
  NCOL  20
END dimensions

BEGIN griddata
  delr
    INTERNAL  FACTOR  1.0
       250.00000000     250.00000000     250.00000000     250.00000000     250.00000000     250.00000000     250.00000000     250.00000000     250.00000000     250.00000000     250.00000000     250.00000000     250.00000000     250.00000000     250.00000000     250.00000000     250.00000000     250.00000000     250.00000000     250.00000000
  delc
    INTERNAL  FACTOR  1.0
       250.00000000     250.00000000     250.00000000     250.00000000     250.00000000     250.00000000     250.00000000     250.00000000     250.00000000     250.00000000     250.00000000     250.00000000     250.00000000     250.00000000     250.00000000     250.00000000     250.00000000     250.00000000     250.00000000     250.00000000
       250.00000000     250.00000000     250.00000000     250.00000000     250.00000000     250.00000000     250.00000000     250.00000000     250.00000000     250.00000000     250.00000000     250.00000000     250.00000000     250.00000000     250.00000000     250.00000000     250.00000000     250.00000000     250.00000000     250.00000000
  top
    CONSTANT      35.00000000
  botm
    INTERNAL  FACTOR  1.0
        17.00800000       0.00000000       0.00000000       0.00000000       0.00000000       0.00000000       0.00000000       0.00000000       0.00000000       0.00000000       0.00000000       0.00000000       0.00000000       0.00000000       0.00000000       0.00000000       0.00000000       0.00000000       0.00000000       0.00000000
        19.12600000       0.00000000       0.00000000       0.00000000       0.00000000       0.00000000       0.00000000       0.00000000       0.00000000       0.00000000       0.00000000       0.00000000       0.00000000       0.00000000       0.00000000       0.00000000       0.00000000       0.00000000       0.00000000       0.00000000
        17.48000000      18.86000000       0.00000000       0.00000000       0.00000000       0.00000000       0.00000000       0.00000000       0.00000000       0.00000000       0.00000000       0.00000000       0.00000000       0.00000000       0.00000000       0.00000000       0.00000000       0.00000000       0.00000000       0.00000000
        17.97000000      18.89700000       0.00000000       0.00000000       0.00000000       0.00000000       0.00000000       0.00000000       0.00000000       0.00000000       0.00000000       0.00000000       0.00000000       0.00000000       0.00000000       0.00000000       0.00000000       0.00000000       0.00000000       0.00000000
        18.91100000      18.04500000      16.99500000       0.00000000       0.00000000       0.00000000       0.00000000       0.00000000       0.00000000       0.00000000       0.00000000       0.00000000       0.00000000       0.00000000       0.00000000       0.00000000       0.00000000       0.00000000       0.00000000       0.00000000
        15.99900000      18.17800000      16.63500000       0.00000000       0.00000000       0.00000000       0.00000000       0.00000000       0.00000000       0.00000000       0.00000000       0.00000000       0.00000000       0.00000000       0.00000000       0.00000000       0.00000000       0.00000000       0.00000000       0.00000000
        15.92700000      13.24200000      15.20600000      11.21300000       0.00000000       0.00000000       0.00000000       0.00000000       0.00000000       0.00000000       0.00000000       0.00000000       0.00000000       0.00000000       0.00000000       0.00000000       0.00000000       0.00000000       0.00000000       0.00000000
        19.60000000      14.54300000      14.03300000      13.18600000       0.00000000       0.00000000       0.00000000       0.00000000       0.00000000       0.00000000       0.00000000       0.00000000       0.00000000       0.00000000       0.00000000       0.00000000       0.00000000       0.00000000       0.00000000       0.00000000
        18.47600000      13.43300000      12.34700000      15.74100000       0.00000000       0.00000000       0.00000000       0.00000000       0.00000000       0.00000000       0.00000000       0.00000000       0.00000000       0.00000000       0.00000000       0.00000000       0.00000000       0.00000000       0.00000000       0.00000000
        19.66500000      13.11700000      15.52800000      14.13100000       0.00000000       0.00000000       0.00000000       0.00000000       0.00000000       0.00000000       0.00000000       0.00000000       0.00000000       0.00000000       0.00000000       0.00000000       0.00000000       0.00000000       0.00000000       0.00000000
        17.51300000      14.75900000      13.08300000      15.51700000       0.00000000       0.00000000       0.00000000       0.00000000       0.00000000       0.00000000       0.00000000       0.00000000       0.00000000       0.00000000       0.00000000       0.00000000       0.00000000       0.00000000       0.00000000       0.00000000
        12.28100000      13.47600000      14.60400000      14.49600000       0.00000000       0.00000000       0.00000000       0.00000000       0.00000000       0.00000000       0.00000000       0.00000000       0.00000000       0.00000000       0.00000000       0.00000000       0.00000000       0.00000000       0.00000000       0.00000000
        14.14200000      11.96200000      13.89600000      12.91300000       0.00000000       0.00000000       0.00000000       0.00000000       0.00000000       0.00000000       0.00000000       0.00000000       0.00000000       0.00000000       0.00000000       0.00000000       0.00000000       0.00000000       0.00000000       0.00000000
        14.96000000      13.66900000      11.69900000      10.42300000       0.00000000       0.00000000       0.00000000       0.00000000       0.00000000       0.00000000       0.00000000       0.00000000       0.00000000       0.00000000       0.00000000       0.00000000       0.00000000       0.00000000       0.00000000       0.00000000
        12.85200000      13.66100000      10.57300000       9.03390000       0.00000000       0.00000000       0.00000000       0.00000000       0.00000000       0.00000000       0.00000000       0.00000000       0.00000000       0.00000000       0.00000000       0.00000000       0.00000000       0.00000000       0.00000000       0.00000000
        14.40300000      15.21300000      10.40900000       9.03550000       0.00000000       0.00000000       0.00000000       0.00000000       0.00000000       0.00000000       0.00000000       0.00000000       0.00000000       0.00000000       0.00000000       0.00000000       0.00000000       0.00000000       0.00000000       0.00000000
        13.19100000       9.30460000       9.22410000      10.17700000       0.00000000       0.00000000       0.00000000       0.00000000       8.02620000       0.00000000       0.00000000       0.00000000       0.00000000       0.00000000       0.00000000       0.00000000       0.00000000       0.00000000       0.00000000       0.00000000
        13.75700000       9.66970000       6.91560000      10.09200000       0.00000000       0.00000000       0.00000000       0.00000000      10.80300000       0.00000000       0.00000000       0.00000000       0.00000000       0.00000000       0.00000000       0.00000000       0.00000000       0.00000000       0.00000000       0.00000000
        13.63100000      11.05100000       6.06320000      11.08900000       0.00000000       0.00000000       0.00000000       0.00000000       9.67770000       6.21880000       0.00000000       0.00000000       0.00000000       0.00000000       0.00000000       0.00000000       0.00000000       0.00000000       0.00000000       0.00000000
        14.26900000      10.14300000       3.99430000      10.64500000       0.00000000       0.00000000       0.00000000       0.00000000      10.36000000       5.34130000       0.00000000       0.00000000       0.00000000       0.00000000       0.00000000       0.00000000       0.00000000       0.00000000       0.00000000       0.00000000
        12.24400000       9.76070000       7.87840000       9.50280000       0.00000000       0.00000000       0.00000000       0.00000000       8.71730000       3.95390000       1.83670000       0.00000000       0.00000000       0.00000000       0.00000000       0.00000000       0.00000000       0.00000000       0.00000000       0.00000000
        14.71800000      10.69500000       4.73030000       8.28070000       0.00000000       0.00000000      10.11200000      12.15600000       5.96850000       6.00990000       1.15770000       0.00000000       0.00000000       0.00000000       0.00000000       0.00000000       0.00000000       0.00000000       0.00000000       0.00000000
        12.02400000       9.32890000       5.47250000       8.63540000       8.43790000       0.00000000      10.13500000      11.92700000       5.99170000       6.08540000       1.28310000       1.88490000       0.00000000       0.00000000       0.00000000       0.00000000       0.00000000       0.00000000       0.00000000       0.00000000
        13.80300000       8.95350000       7.10000000       9.38520000      11.01200000      11.41000000      10.45100000       4.76650000       7.02230000       5.08160000       1.48990000       1.32940000       0.00000000       0.00000000       0.00000000       0.00000000       0.00000000       0.00000000       0.00000000       0.00000000
        14.26500000       9.08470000       5.28560000      12.81300000      11.10700000       5.24160000       5.79910000       5.60340000       6.76680000       1.78130000       0.64551000       0.34632000       0.33457000       0.00000000       0.00000000       0.00000000       0.00000000       0.00000000       0.00000000       0.00000000
        14.87200000      10.04900000      10.57900000       7.27660000       6.54250000       4.17030000       6.16180000       4.03610000       3.45980000       2.70510000       0.44935000       0.63725000       0.54417000       0.00000000       0.00000000       0.00000000       0.00000000       0.00000000       0.00000000       0.00000000
        13.41000000      10.74200000       9.43480000      10.04900000       6.55460000       5.98330000       4.51270000       4.50020000       2.70580000       3.41340000       0.30495000       0.54159000       0.42427000       0.46775000       0.00000000       0.00000000       0.00000000       0.00000000       0.00000000       0.00000000
        13.73500000      12.12700000       9.42410000      10.30600000       7.19440000       6.80390000       5.40210000       3.43080000       2.70980000       1.98100000       0.86971000       0.33906000       0.49520000       0.18621000       0.00000000       0.00000000       0.00000000       0.00000000       0.00000000       0.00000000
        15.01700000      10.89700000      10.49900000      10.83400000       6.64450000       6.45400000       5.42570000       2.48750000       2.65920000       1.84350000       0.18291000       0.04235700       0.78516000       0.44038000       0.68956000       0.00000000       0.00000000       0.00000000       0.00000000       0.00000000
        14.11100000       9.87870000       8.03510000       5.33840000       6.27750000       5.22400000       5.58960000       5.58910000       2.64510000       1.75680000       0.91572000       0.56926000       0.23439000       0.44421000       0.01394500       0.00000000       0.00000000       0.00000000       0.00000000       0.00000000
        11.29600000       9.65660000       7.73560000      11.02000000       4.57680000       7.20370000       7.38850000       5.20520000       2.72170000       1.36240000       0.33393000       0.69415000       0.65321000       0.59193000       0.41246000       0.49522000       0.00000000       0.00000000       0.00000000       0.00000000
        12.59400000       9.91030000      10.76900000       4.59770000       5.66070000       6.28100000       5.76160000       2.44910000       3.47210000       2.06080000       0.68552000       0.25336000       0.91441000       0.54346000       0.56949000       0.75008000       0.00000000       0.00000000       0.00000000       0.00000000
         0.00000000       8.86750000      10.93700000       5.94630000       6.71910000       6.56230000       5.41180000       3.44390000       2.38400000       1.91040000       0.50746000       0.68438000       0.18877000       0.46541000       0.71091000       0.34071000       0.15942000       0.00000000       0.00000000       0.00000000
         0.00000000       0.00000000      10.95100000       6.16130000       6.39230000       6.77090000       2.97070000       3.00160000       3.16400000       0.92741000       0.16310000       0.66005000       0.26561000       0.33311000       0.69232000       0.48345000       0.63888000       0.00000000       0.00000000       0.00000000
         0.00000000       0.00000000       0.00000000       7.35480000       5.17310000       4.97080000       5.28450000       6.20870000       3.10520000       1.33270000       0.80084000       0.39921000       0.47913000       0.18351000       0.58788000       0.74344000       0.85021000       1.93280000       0.00000000       0.00000000
         0.00000000       0.00000000       0.00000000       0.00000000       4.27790000       4.84380000       5.58920000       5.08860000       3.22450000       1.66830000       0.68472000       0.40313000       0.51307000       0.53072000       0.25027000       0.63302000       0.68430000       1.43690000       0.00000000       0.00000000
         0.00000000       0.00000000       0.00000000       0.00000000       5.89260000       6.24750000       7.16320000       3.03870000       2.25360000       1.64640000       0.31075000      -0.20274000       0.54896000       1.07790000       0.06494400       0.42170000       0.31244000       1.78110000       1.44660000       0.00000000
         0.00000000       0.00000000       0.00000000       0.00000000       0.00000000       6.58550000       4.74020000       1.78550000       2.91220000       1.61550000       0.70832000       0.41666000       0.56100000       0.47438000       0.37151000       0.32872000       0.49578000       1.42850000       0.00000000       0.00000000
         0.00000000       0.00000000       0.00000000       0.00000000       0.00000000       5.15030000       5.89600000       2.34500000       2.72540000       1.41890000       0.12200000       0.46661000       0.49436000       0.16616000       0.67492000       0.68190000      -0.00166330       0.00000000       0.00000000       0.00000000
         0.00000000       0.00000000       0.00000000       0.00000000       0.00000000       6.91380000       4.58080000       2.52750000       2.60380000       1.44440000       0.53652000       0.22531000       0.58956000       0.60786000       0.50599000       0.00000000       0.00000000       0.00000000       0.00000000       0.00000000
  idomain
    INTERNAL  FACTOR  1
    1  0  0  0  0  0  0  0  0  0  0  0  0  0  0  0  0  0  0  0
    1  0  0  0  0  0  0  0  0  0  0  0  0  0  0  0  0  0  0  0
    1  1  0  0  0  0  0  0  0  0  0  0  0  0  0  0  0  0  0  0
    1  1  0  0  0  0  0  0  0  0  0  0  0  0  0  0  0  0  0  0
    1  1  1  0  0  0  0  0  0  0  0  0  0  0  0  0  0  0  0  0
    1  1  1  0  0  0  0  0  0  0  0  0  0  0  0  0  0  0  0  0
    1  1  1  1  0  0  0  0  0  0  0  0  0  0  0  0  0  0  0  0
    1  1  1  1  0  0  0  0  0  0  0  0  0  0  0  0  0  0  0  0
    1  1  1  1  0  0  0  0  0  0  0  0  0  0  0  0  0  0  0  0
    1  1  1  1  0  0  0  0  0  0  0  0  0  0  0  0  0  0  0  0
    1  1  1  1  0  0  0  0  0  0  0  0  0  0  0  0  0  0  0  0
    1  1  1  1  0  0  0  0  0  0  0  0  0  0  0  0  0  0  0  0
    1  1  1  1  0  0  0  0  0  0  0  0  0  0  0  0  0  0  0  0
    1  1  1  1  0  0  0  0  0  0  0  0  0  0  0  0  0  0  0  0
    1  1  1  1  0  0  0  0  0  0  0  0  0  0  0  0  0  0  0  0
    1  1  1  1  0  0  0  0  0  0  0  0  0  0  0  0  0  0  0  0
    1  1  1  1  0  0  0  0  1  0  0  0  0  0  0  0  0  0  0  0
    1  1  1  1  0  0  0  0  1  0  0  0  0  0  0  0  0  0  0  0
    1  1  1  1  0  0  0  0  1  1  0  0  0  0  0  0  0  0  0  0
    1  1  1  1  0  0  0  0  1  1  0  0  0  0  0  0  0  0  0  0
    1  1  1  1  0  0  0  0  1  1  1  0  0  0  0  0  0  0  0  0
    1  1  1  1  0  0  1  1  1  1  1  0  0  0  0  0  0  0  0  0
    1  1  1  1  1  0  1  1  1  1  1  1  0  0  0  0  0  0  0  0
    1  1  1  1  1  1  1  1  1  1  1  1  0  0  0  0  0  0  0  0
    1  1  1  1  1  1  1  1  1  1  1  1  1  0  0  0  0  0  0  0
    1  1  1  1  1  1  1  1  1  1  1  1  1  0  0  0  0  0  0  0
    1  1  1  1  1  1  1  1  1  1  1  1  1  1  0  0  0  0  0  0
    1  1  1  1  1  1  1  1  1  1  1  1  1  1  0  0  0  0  0  0
    1  1  1  1  1  1  1  1  1  1  1  1  1  1  1  0  0  0  0  0
    1  1  1  1  1  1  1  1  1  1  1  1  1  1  1  0  0  0  0  0
    1  1  1  1  1  1  1  1  1  1  1  1  1  1  1  1  0  0  0  0
    1  1  1  1  1  1  1  1  1  1  1  1  1  1  1  1  0  0  0  0
    0  1  1  1  1  1  1  1  1  1  1  1  1  1  1  1  1  0  0  0
    0  0  1  1  1  1  1  1  1  1  1  1  1  1  1  1  1  0  0  0
    0  0  0  1  1  1  1  1  1  1  1  1  1  1  1  1  1  1  0  0
    0  0  0  0  1  1  1  1  1  1  1  1  1  1  1  1  1  1  0  0
    0  0  0  0  1  1  1  1  1  1  1  1  1  1  1  1  1  1  1  0
    0  0  0  0  0  1  1  1  1  1  1  1  1  1  1  1  1  1  0  0
    0  0  0  0  0  1  1  1  1  1  1  1  1  1  1  1  1  0  0  0
    0  0  0  0  0  1  1  1  1  1  1  1  1  1  1  0  0  0  0  0
END griddata

