# File generated by Flopy version 3.9.1 on 06/14/2025 at 10:34:05.
BEGIN options
END options

BEGIN griddata
  strt
    INTERNAL  FACTOR  1.0
        45.00000000      45.00000000      45.00000000      45.00000000      45.00000000      45.00000000      45.00000000      45.00000000      45.00000000      45.00000000      45.00000000      45.00000000      45.00000000      45.00000000      45.00000000      45.00000000      45.00000000      45.00000000      45.00000000
        45.00000000      45.00000000      45.00000000      45.00000000      45.00000000      45.00000000      45.00000000      45.00000000      45.00000000      45.00000000      45.00000000      45.00000000      45.00000000      45.00000000      45.00000000      45.00000000      45.00000000      45.00000000      45.00000000
         0.00000000      45.00000000      45.00000000      45.00000000      45.00000000      45.00000000      45.00000000      45.00000000      45.00000000      45.00000000      45.00000000      45.00000000      45.00000000      45.00000000      45.00000000      45.00000000      45.00000000      45.00000000      45.00000000
         0.00000000      45.00000000      45.00000000      45.00000000      45.00000000      45.00000000      45.00000000      45.00000000      45.00000000      45.00000000      45.00000000      45.00000000      45.00000000      45.00000000      45.00000000      45.00000000      45.00000000      45.00000000      45.00000000
         0.00000000       0.00000000      45.00000000      45.00000000      45.00000000      45.00000000      45.00000000      45.00000000      45.00000000      45.00000000      45.00000000      45.00000000      45.00000000      45.00000000      45.00000000      45.00000000      45.00000000      45.00000000      45.00000000
         0.00000000       0.00000000      45.00000000      45.00000000      45.00000000      45.00000000      45.00000000      45.00000000      45.00000000      45.00000000      45.00000000      45.00000000      45.00000000      45.00000000      45.00000000      45.00000000      45.00000000      45.00000000      45.00000000
         0.00000000       0.00000000       0.00000000      45.00000000      45.00000000      45.00000000      45.00000000      45.00000000      45.00000000      45.00000000      45.00000000      45.00000000      45.00000000      45.00000000      45.00000000      45.00000000      45.00000000      45.00000000      45.00000000
         0.00000000       0.00000000       0.00000000      45.00000000      45.00000000      45.00000000      45.00000000      45.00000000      45.00000000      45.00000000      45.00000000      45.00000000      45.00000000      45.00000000      45.00000000      45.00000000      45.00000000      45.00000000      45.00000000
         0.00000000       0.00000000       0.00000000       0.00000000      45.00000000      45.00000000      45.00000000      45.00000000      45.00000000      45.00000000      45.00000000      45.00000000      45.00000000      45.00000000      45.00000000      45.00000000      45.00000000      45.00000000      45.00000000
         0.00000000       0.00000000       0.00000000       0.00000000      45.00000000      45.00000000      45.00000000      45.00000000      45.00000000      45.00000000      45.00000000      45.00000000      45.00000000      45.00000000      45.00000000      45.00000000      45.00000000      45.00000000      45.00000000
         0.00000000       0.00000000       0.00000000       0.00000000       0.00000000      45.00000000      45.00000000      45.00000000      45.00000000      45.00000000      45.00000000      45.00000000      45.00000000      45.00000000      45.00000000      45.00000000      45.00000000      45.00000000      45.00000000
         0.00000000       0.00000000       0.00000000       0.00000000       0.00000000      45.00000000      45.00000000      45.00000000      45.00000000      45.00000000      45.00000000      45.00000000      45.00000000      45.00000000      45.00000000      45.00000000      45.00000000      45.00000000      45.00000000
         0.00000000       0.00000000       0.00000000       0.00000000       0.00000000       0.00000000      45.00000000      45.00000000      45.00000000      45.00000000      45.00000000      45.00000000      45.00000000      45.00000000      45.00000000      45.00000000      45.00000000      45.00000000      45.00000000
         0.00000000       0.00000000       0.00000000       0.00000000       0.00000000       0.00000000      45.00000000      45.00000000      45.00000000      45.00000000      45.00000000      45.00000000      45.00000000      45.00000000      45.00000000      45.00000000      45.00000000      45.00000000      45.00000000
         0.00000000       0.00000000       0.00000000       0.00000000       0.00000000       0.00000000       0.00000000      45.00000000      45.00000000      45.00000000      45.00000000      45.00000000      45.00000000      45.00000000      45.00000000      45.00000000      45.00000000      45.00000000      45.00000000
         0.00000000       0.00000000       0.00000000       0.00000000       0.00000000       0.00000000       0.00000000      45.00000000      45.00000000      45.00000000      45.00000000      45.00000000      45.00000000      45.00000000      45.00000000      45.00000000      45.00000000      45.00000000      45.00000000
         0.00000000       0.00000000       0.00000000       0.00000000       0.00000000       0.00000000       0.00000000       0.00000000      45.00000000      45.00000000      45.00000000      45.00000000      45.00000000      45.00000000      45.00000000      45.00000000      45.00000000      45.00000000      45.00000000
         0.00000000       0.00000000       0.00000000       0.00000000       0.00000000       0.00000000       0.00000000       0.00000000      45.00000000      45.00000000      45.00000000      45.00000000      45.00000000      45.00000000      45.00000000      45.00000000      45.00000000      45.00000000      45.00000000
         0.00000000       0.00000000       0.00000000       0.00000000       0.00000000       0.00000000       0.00000000       0.00000000       0.00000000      45.00000000      45.00000000      45.00000000      45.00000000      45.00000000      45.00000000      45.00000000      45.00000000      45.00000000      45.00000000
         0.00000000       0.00000000       0.00000000       0.00000000       0.00000000       0.00000000       0.00000000       0.00000000       0.00000000      45.00000000      45.00000000      45.00000000      45.00000000      45.00000000      45.00000000      45.00000000      45.00000000      45.00000000      45.00000000
         0.00000000       0.00000000       0.00000000       0.00000000       0.00000000       0.00000000       0.00000000       0.00000000       0.00000000       0.00000000      45.00000000      45.00000000      45.00000000      45.00000000      45.00000000      45.00000000      45.00000000      45.00000000      45.00000000
         0.00000000       0.00000000       0.00000000       0.00000000       0.00000000       0.00000000       0.00000000       0.00000000       0.00000000       0.00000000      45.00000000      45.00000000      45.00000000      45.00000000      45.00000000      45.00000000      45.00000000      45.00000000      45.00000000
         0.00000000       0.00000000       0.00000000       0.00000000       0.00000000       0.00000000       0.00000000       0.00000000       0.00000000       0.00000000       0.00000000      45.00000000      45.00000000      45.00000000      45.00000000      45.00000000      45.00000000      45.00000000      45.00000000
         0.00000000       0.00000000       0.00000000       0.00000000       0.00000000       0.00000000       0.00000000       0.00000000       0.00000000       0.00000000       0.00000000      45.00000000      45.00000000      45.00000000      45.00000000      45.00000000      45.00000000      45.00000000      45.00000000
         0.00000000       0.00000000       0.00000000       0.00000000       0.00000000       0.00000000       0.00000000       0.00000000       0.00000000       0.00000000       0.00000000       0.00000000      45.00000000      45.00000000      45.00000000      45.00000000      45.00000000      45.00000000      45.00000000
         0.00000000       0.00000000       0.00000000       0.00000000       0.00000000       0.00000000       0.00000000       0.00000000       0.00000000       0.00000000       0.00000000       0.00000000      45.00000000      45.00000000      45.00000000      45.00000000      45.00000000      45.00000000      45.00000000
         0.00000000       0.00000000       0.00000000       0.00000000       0.00000000       0.00000000       0.00000000       0.00000000       0.00000000       0.00000000       0.00000000       0.00000000       0.00000000      45.00000000      45.00000000      45.00000000      45.00000000      45.00000000      45.00000000
         0.00000000       0.00000000       0.00000000       0.00000000       0.00000000       0.00000000       0.00000000       0.00000000       0.00000000       0.00000000       0.00000000       0.00000000       0.00000000      45.00000000      45.00000000      45.00000000      45.00000000      45.00000000      45.00000000
         0.00000000       0.00000000       0.00000000       0.00000000       0.00000000       0.00000000       0.00000000       0.00000000       0.00000000       0.00000000       0.00000000       0.00000000       0.00000000       0.00000000      45.00000000      45.00000000      45.00000000      45.00000000      45.00000000
         0.00000000       0.00000000       0.00000000       0.00000000       0.00000000       0.00000000       0.00000000       0.00000000       0.00000000       0.00000000       0.00000000       0.00000000       0.00000000       0.00000000      45.00000000      45.00000000      45.00000000      45.00000000      45.00000000
         0.00000000       0.00000000       0.00000000       0.00000000       0.00000000       0.00000000       0.00000000       0.00000000       0.00000000       0.00000000       0.00000000       0.00000000       0.00000000       0.00000000       0.00000000      45.00000000      45.00000000      45.00000000      45.00000000
         0.00000000       0.00000000       0.00000000       0.00000000       0.00000000       0.00000000       0.00000000       0.00000000       0.00000000       0.00000000       0.00000000       0.00000000       0.00000000       0.00000000       0.00000000      45.00000000      45.00000000      45.00000000      45.00000000
         0.00000000       0.00000000       0.00000000       0.00000000       0.00000000       0.00000000       0.00000000       0.00000000       0.00000000       0.00000000       0.00000000       0.00000000       0.00000000       0.00000000       0.00000000       0.00000000      45.00000000      45.00000000      45.00000000
         0.00000000       0.00000000       0.00000000       0.00000000       0.00000000       0.00000000       0.00000000       0.00000000       0.00000000       0.00000000       0.00000000       0.00000000       0.00000000       0.00000000       0.00000000       0.00000000      45.00000000      45.00000000      45.00000000
         0.00000000       0.00000000       0.00000000       0.00000000       0.00000000       0.00000000       0.00000000       0.00000000       0.00000000       0.00000000       0.00000000       0.00000000       0.00000000       0.00000000       0.00000000       0.00000000       0.00000000      45.00000000      45.00000000
         0.00000000       0.00000000       0.00000000       0.00000000       0.00000000       0.00000000       0.00000000       0.00000000       0.00000000       0.00000000       0.00000000       0.00000000       0.00000000       0.00000000       0.00000000       0.00000000       0.00000000      45.00000000      45.00000000
         0.00000000       0.00000000       0.00000000       0.00000000       0.00000000       0.00000000       0.00000000       0.00000000       0.00000000       0.00000000       0.00000000       0.00000000       0.00000000       0.00000000       0.00000000       0.00000000       0.00000000       0.00000000      45.00000000
         0.00000000       0.00000000       0.00000000       0.00000000       0.00000000       0.00000000       0.00000000       0.00000000       0.00000000       0.00000000       0.00000000       0.00000000       0.00000000       0.00000000       0.00000000       0.00000000       0.00000000       0.00000000      45.00000000
END griddata

