# File generated by Flopy version 3.10.0.dev3 on 06/15/2025 at 08:21:36.
BEGIN options
  PRINT_INPUT
  PRINT_FLOWS
  SAVE_FLOWS
END options

BEGIN dimensions
  MAXBOUND  6
END dimensions

BEGIN period  1
  1 9 15 -8.20000000E-03
  1 11 12 -4.10000000E-03
  1 20 13 -3.90000000E-03
END period  1

