# File generated by Flopy version 3.10.0.dev3 on 06/16/2025 at 06:44:19.
BEGIN options
  READASARRAYS
  PRINT_INPUT
  PRINT_FLOWS
  SAVE_FLOWS
END options

BEGIN period  1
  recharge
    CONSTANT  1.60000000E-09
END period  1

