# File generated by Flopy version 3.9.1 on 06/14/2025 at 10:34:05.
BEGIN options
  PRINT_INPUT
  PRINT_FLOWS
  SAVE_FLOWS
END options

BEGIN dimensions
  MAXBOUND  40
END dimensions

BEGIN period  1
  1 1 14 2.01000000E+01 5.00000000E-02 2.00000000E+01
  1 2 14 1.98700000E+01 5.00000000E-02 1.97500000E+01
  1 3 14 1.96500000E+01 5.00000000E-02 1.95000000E+01
  1 4 14 1.94200000E+01 5.00000000E-02 1.92500000E+01
  1 5 14 1.91900000E+01 5.00000000E-02 1.90000000E+01
  1 6 14 1.89700000E+01 5.00000000E-02 1.87500000E+01
  1 7 14 1.87400000E+01 5.00000000E-02 1.85000000E+01
  1 8 14 1.85100000E+01 5.00000000E-02 1.82500000E+01
  1 9 14 1.82800000E+01 5.00000000E-02 1.80000000E+01
  1 10 14 1.90600000E+01 5.00000000E-02 1.77500000E+01
  1 11 14 1.78300000E+01 5.00000000E-02 1.75000000E+01
  1 12 14 1.76000000E+01 5.00000000E-02 1.72500000E+01
  1 13 14 1.73800000E+01 5.00000000E-02 1.70000000E+01
  1 14 14 1.71500000E+01 5.00000000E-02 1.67500000E+01
  1 15 14 1.69200000E+01 5.00000000E-02 1.65000000E+01
  1 16 14 1.67000000E+01 5.00000000E-02 1.62500000E+01
  1 17 14 1.64700000E+01 5.00000000E-02 1.60000000E+01
  1 18 14 1.62400000E+01 5.00000000E-02 1.57500000E+01
  1 19 14 1.60200000E+01 5.00000000E-02 1.55000000E+01
  1 20 14 1.57900000E+01 5.00000000E-02 1.52500000E+01
  1 21 14 1.55600000E+01 5.00000000E-02 1.50000000E+01
  1 22 14 1.53300000E+01 5.00000000E-02 1.47500000E+01
  1 23 14 1.51100000E+01 5.00000000E-02 1.45000000E+01
  1 24 14 1.48800000E+01 5.00000000E-02 1.42500000E+01
  1 25 14 1.46500000E+01 5.00000000E-02 1.40000000E+01
  1 26 14 1.44300000E+01 5.00000000E-02 1.37500000E+01
  1 27 14 1.42000000E+01 5.00000000E-02 1.35000000E+01
  1 28 14 1.39700000E+01 5.00000000E-02 1.32500000E+01
END period  1

