# File generated by Flopy version 3.9.1 on 06/14/2025 at 10:34:05.
BEGIN options
  BUDGET  FILEOUT  freyberg_1.cbc
  HEAD  FILEOUT  freyberg_1.hds
END options

BEGIN period  1
  SAVE  head  all
  SAVE  budget  all
  PRINT  budget  all
END period  1

