# File generated by Flopy version 3.10.0.dev3 on 06/15/2025 at 08:21:36.
BEGIN options
  LENGTH_UNITS  meters
  XORIGIN     250.00000000
  YORIGIN     500.00000000
END options

BEGIN dimensions
  NLAY  1
  NROW  38
  NCOL  19
END dimensions

BEGIN griddata
  delr
    INTERNAL  FACTOR  1.0
       250.00000000     250.00000000     250.00000000     250.00000000     250.00000000     250.00000000     250.00000000     250.00000000     250.00000000     250.00000000     250.00000000     250.00000000     250.00000000     250.00000000     250.00000000     250.00000000     250.00000000     250.00000000     250.00000000
  delc
    INTERNAL  FACTOR  1.0
       250.00000000     250.00000000     250.00000000     250.00000000     250.00000000     250.00000000     250.00000000     250.00000000     250.00000000     250.00000000     250.00000000     250.00000000     250.00000000     250.00000000     250.00000000     250.00000000     250.00000000     250.00000000     250.00000000     250.00000000
       250.00000000     250.00000000     250.00000000     250.00000000     250.00000000     250.00000000     250.00000000     250.00000000     250.00000000     250.00000000     250.00000000     250.00000000     250.00000000     250.00000000     250.00000000     250.00000000     250.00000000     250.00000000
  top
    CONSTANT      35.00000000
  botm
    INTERNAL  FACTOR  1.0
        18.50700000      18.67200000      15.93000000      13.96100000      14.46200000       8.01900000      10.60000000       8.88470000       7.22740000       6.25110000       6.00610000       7.11430000       6.90390000       6.24430000       6.94500000       6.98550000       5.03100000       4.00610000       6.65840000
        17.34500000      18.23400000      13.66000000      13.26200000      13.92200000      10.67600000       9.91670000      11.02500000       6.40940000       4.87820000       5.08430000       6.53210000       5.17730000       5.71810000       4.33290000       5.88670000       6.43560000       5.29410000       6.05030000
         0.00000000      18.29600000      12.98600000      13.73800000      14.40100000       9.20200000      11.20800000       8.34990000       8.57420000       5.98100000       6.51990000       6.24530000       5.00660000       7.17200000       7.16350000       4.59080000       5.13250000       5.05240000       6.80110000
         0.00000000      19.31300000      14.86200000      13.32100000      15.76800000      11.46600000       8.75680000      12.32800000       7.05500000       3.05900000       2.82430000       2.24510000       2.98580000       3.19090000       2.23190000       7.78500000       4.95550000       6.33890000       6.47550000
         0.00000000       0.00000000      14.88100000      15.21200000      13.75400000       8.69110000      14.63500000      10.04500000       4.78930000       3.16880000       2.97620000       2.58130000       2.96830000       2.35070000       2.70280000       3.50560000       6.33350000       4.77770000       5.40660000
         0.00000000       0.00000000      13.73900000      13.60200000      14.80500000      15.18400000      12.81500000      14.26300000      10.67300000       3.40140000       3.34280000       2.92570000       3.02380000       3.23610000       2.69490000       2.62320000       3.00850000       6.05610000       6.51840000
         0.00000000       0.00000000       0.00000000      14.45600000      11.63100000      15.13400000      12.83500000      14.00400000       8.93640000       3.46790000       3.38140000       2.92360000       3.49470000       3.57150000       3.31310000       3.93690000       2.71500000       4.51480000       5.87740000
         0.00000000       0.00000000       0.00000000      15.34400000      14.83000000      14.59400000      15.50700000      14.88800000       8.81950000       3.46330000       3.31050000       4.04560000       2.81530000       2.85290000       3.19510000       2.61500000       4.26890000       3.42250000       6.74510000
         0.00000000       0.00000000       0.00000000       0.00000000       0.00000000       0.00000000      12.87500000       8.82730000       5.10870000       4.13680000       3.26770000       2.88390000       3.32580000       3.48570000       3.21120000       3.08060000       2.50450000       3.51680000       5.34890000
         0.00000000       0.00000000       0.00000000       0.00000000       0.00000000       0.00000000       0.00000000      10.39200000       6.36520000       3.06700000       2.66100000       3.09420000       2.42510000       3.50190000       2.43680000       3.34560000       2.54270000       3.85150000       2.82730000
         0.00000000       0.00000000       0.00000000       0.00000000       0.00000000       0.00000000       0.00000000      10.55100000       5.44860000       3.13470000       3.36980000       3.06130000       3.05570000       3.06130000       2.73510000       3.02260000       2.86560000       2.89630000       3.61340000
         0.00000000       0.00000000       0.00000000       0.00000000       0.00000000       0.00000000       0.00000000       9.71260000       5.26100000       2.54060000       4.19270000       3.07220000       3.14070000       2.62580000       3.24260000       3.53340000       2.85490000       2.58260000       3.29250000
         0.00000000       0.00000000       0.00000000       0.00000000       0.00000000       0.00000000       0.00000000       8.60310000       5.65220000       1.75320000       1.65210000       1.49320000       1.73380000       1.64620000       1.85130000       3.28960000       2.66170000       3.78380000       3.43770000
         0.00000000       0.00000000       0.00000000       0.00000000       0.00000000       0.00000000       0.00000000       9.40560000       5.63360000       1.62620000       1.68960000       1.28460000       1.54380000       1.84020000       1.59560000       3.71040000       3.19930000       3.24480000       2.74620000
         0.00000000       0.00000000       0.00000000       0.00000000       0.00000000       0.00000000       0.00000000       9.26560000       6.60030000       1.07480000       1.72950000       1.45440000       1.51980000       1.12140000       1.67560000       4.39090000       2.45900000       2.00830000       3.42060000
         0.00000000       0.00000000       0.00000000       0.00000000       0.00000000       0.00000000       0.00000000      10.11100000       3.69920000       1.42320000       1.74990000       1.65810000       1.59200000       1.61040000       1.27250000       4.19030000       2.91220000       3.18910000       3.69980000
         0.00000000       0.00000000       0.00000000       0.00000000       0.00000000       0.00000000       0.00000000       0.00000000       6.21270000       1.37630000       1.29430000       1.45160000       1.30790000       1.10920000       1.31490000       2.94370000       3.65160000       3.21690000       3.24110000
         0.00000000       0.00000000       0.00000000       0.00000000       0.00000000       0.00000000       0.00000000       0.00000000       6.44640000       1.32730000       1.57960000       1.12190000       1.27690000       1.58140000       1.46520000       1.63700000       2.88290000       2.40300000       2.30250000
         0.00000000       0.00000000       0.00000000       0.00000000       0.00000000       0.00000000       0.00000000       0.00000000       0.00000000       1.70760000       1.12440000       1.27500000       1.55450000       1.44650000       1.62840000       1.50160000       2.53990000       1.77120000       4.01150000
         0.00000000       0.00000000       0.00000000       0.00000000       0.00000000       0.00000000       0.00000000       0.00000000       0.00000000       1.11370000       1.34050000       1.42090000       1.56490000       2.20000000       1.44980000       1.52410000       2.94360000       3.10030000       2.87900000
         0.00000000       0.00000000       0.00000000       0.00000000       0.00000000       0.00000000       0.00000000       0.00000000       0.00000000       0.00000000       1.33850000       0.93665000       1.39600000       1.73900000       1.59070000       1.52510000       2.91590000       3.82230000       2.62670000
         0.00000000       0.00000000       0.00000000       0.00000000       0.00000000       0.00000000       0.00000000       0.00000000       0.00000000       0.00000000       1.64470000       1.82290000       1.32920000       1.33650000       1.80930000       1.30930000       1.64700000       2.46180000       3.15630000
         0.00000000       0.00000000       0.00000000       0.00000000       0.00000000       0.00000000       0.00000000       0.00000000       0.00000000       0.00000000       0.00000000       1.16410000       2.00840000       1.36880000       1.38800000       1.25120000       1.48950000       1.69910000       2.97070000
         0.00000000       0.00000000       0.00000000       0.00000000       0.00000000       0.00000000       0.00000000       0.00000000       0.00000000       0.00000000       0.00000000       1.60260000       1.17290000       1.41370000       1.77790000       1.06610000       1.48850000       2.93730000       3.17600000
         0.00000000       0.00000000       0.00000000       0.00000000       0.00000000       0.00000000       0.00000000       0.00000000       0.00000000       0.00000000       0.00000000       0.00000000       0.61037000       0.29866000       0.75990000       2.24840000       1.41890000       2.86230000       2.66290000
         0.00000000       0.00000000       0.00000000       0.00000000       0.00000000       0.00000000       0.00000000       0.00000000       0.00000000       0.00000000       0.00000000       0.00000000       0.56191000       0.47260000       0.24597000       1.14450000       1.58410000       3.82550000       3.58070000
         0.00000000       0.00000000       0.00000000       0.00000000       0.00000000       0.00000000       0.00000000       0.00000000       0.00000000       0.00000000       0.00000000       0.00000000       0.00000000       0.38476000       0.47940000       1.72160000       1.64410000       1.38250000       3.48710000
         0.00000000       0.00000000       0.00000000       0.00000000       0.00000000       0.00000000       0.00000000       0.00000000       0.00000000       0.00000000       0.00000000       0.00000000       0.00000000       0.21029000       0.37993000       1.39460000       1.55220000       1.52730000       2.70370000
         0.00000000       0.00000000       0.00000000       0.00000000       0.00000000       0.00000000       0.00000000       0.00000000       0.00000000       0.00000000       0.00000000       0.00000000       0.00000000       0.00000000       0.84630000       1.46110000       1.30110000       1.62470000       3.56100000
         0.00000000       0.00000000       0.00000000       0.00000000       0.00000000       0.00000000       0.00000000       0.00000000       0.00000000       0.00000000       0.00000000       0.00000000       0.00000000       0.00000000       0.63471000       0.43162000       1.49600000       1.71190000       3.44040000
         0.00000000       0.00000000       0.00000000       0.00000000       0.00000000       0.00000000       0.00000000       0.00000000       0.00000000       0.00000000       0.00000000       0.00000000       0.00000000       0.00000000       0.00000000       0.71503000       1.09850000       1.69750000       2.18050000
         0.00000000       0.00000000       0.00000000       0.00000000       0.00000000       0.00000000       0.00000000       0.00000000       0.00000000       0.00000000       0.00000000       0.00000000       0.00000000       0.00000000       0.00000000       0.23777000       1.21860000       1.10720000       3.14870000
         0.00000000       0.00000000       0.00000000       0.00000000       0.00000000       0.00000000       0.00000000       0.00000000       0.00000000       0.00000000       0.00000000       0.00000000       0.00000000       0.00000000       0.00000000       0.00000000       1.47530000       1.00080000       2.47900000
         0.00000000       0.00000000       0.00000000       0.00000000       0.00000000       0.00000000       0.00000000       0.00000000       0.00000000       0.00000000       0.00000000       0.00000000       0.00000000       0.00000000       0.00000000       0.00000000       1.37370000       1.67970000       1.46610000
         0.00000000       0.00000000       0.00000000       0.00000000       0.00000000       0.00000000       0.00000000       0.00000000       0.00000000       0.00000000       0.00000000       0.00000000       0.00000000       0.00000000       0.00000000       0.00000000       0.00000000       1.85560000       2.00220000
         0.00000000       0.00000000       0.00000000       0.00000000       0.00000000       0.00000000       0.00000000       0.00000000       0.00000000       0.00000000       0.00000000       0.00000000       0.00000000       0.00000000       0.00000000       0.00000000       0.00000000       1.61740000       0.00000000
         0.00000000       0.00000000       0.00000000       0.00000000       0.00000000       0.00000000       0.00000000       0.00000000       0.00000000       0.00000000       0.00000000       0.00000000       0.00000000       0.00000000       0.00000000       0.00000000       0.00000000       0.00000000       0.00000000
         0.00000000       0.00000000       0.00000000       0.00000000       0.00000000       0.00000000       0.00000000       0.00000000       0.00000000       0.00000000       0.00000000       0.00000000       0.00000000       0.00000000       0.00000000       0.00000000       0.00000000       0.00000000       0.00000000
  idomain
    INTERNAL  FACTOR  1
    1  1  1  1  1  1  1  1  1  1  1  1  1  1  1  1  1  1  1
    1  1  1  1  1  1  1  1  1  1  1  1  1  1  1  1  1  1  1
    0  1  1  1  1  1  1  1  1  1  1  1  1  1  1  1  1  1  1
    0  1  1  1  1  1  1  1  1  1  1  1  1  1  1  1  1  1  1
    0  0  1  1  1  1  1  1  1  1  1  1  1  1  1  1  1  1  1
    0  0  1  1  1  1  1  1  1  1  1  1  1  1  1  1  1  1  1
    0  0  0  1  1  1  1  1  1  1  1  1  1  1  1  1  1  1  1
    0  0  0  1  1  1  1  1  1  1  1  1  1  1  1  1  1  1  1
    0  0  0  0  0  0  1  1  1  1  1  1  1  1  1  1  1  1  1
    0  0  0  0  0  0  0  1  1  1  1  1  1  1  1  1  1  1  1
    0  0  0  0  0  0  0  1  1  1  1  1  1  1  1  1  1  1  1
    0  0  0  0  0  0  0  1  1  1  1  1  1  1  1  1  1  1  1
    0  0  0  0  0  0  0  1  1  1  1  1  1  1  1  1  1  1  1
    0  0  0  0  0  0  0  1  1  1  1  1  1  1  1  1  1  1  1
    0  0  0  0  0  0  0  1  1  1  1  1  1  1  1  1  1  1  1
    0  0  0  0  0  0  0  1  1  1  1  1  1  1  1  1  1  1  1
    0  0  0  0  0  0  0  0  1  1  1  1  1  1  1  1  1  1  1
    0  0  0  0  0  0  0  0  1  1  1  1  1  1  1  1  1  1  1
    0  0  0  0  0  0  0  0  0  1  1  1  1  1  1  1  1  1  1
    0  0  0  0  0  0  0  0  0  1  1  1  1  1  1  1  1  1  1
    0  0  0  0  0  0  0  0  0  0  1  1  1  1  1  1  1  1  1
    0  0  0  0  0  0  0  0  0  0  1  1  1  1  1  1  1  1  1
    0  0  0  0  0  0  0  0  0  0  0  1  1  1  1  1  1  1  1
    0  0  0  0  0  0  0  0  0  0  0  1  1  1  1  1  1  1  1
    0  0  0  0  0  0  0  0  0  0  0  0  1  1  1  1  1  1  1
    0  0  0  0  0  0  0  0  0  0  0  0  1  1  1  1  1  1  1
    0  0  0  0  0  0  0  0  0  0  0  0  0  1  1  1  1  1  1
    0  0  0  0  0  0  0  0  0  0  0  0  0  1  1  1  1  1  1
    0  0  0  0  0  0  0  0  0  0  0  0  0  0  1  1  1  1  1
    0  0  0  0  0  0  0  0  0  0  0  0  0  0  1  1  1  1  1
    0  0  0  0  0  0  0  0  0  0  0  0  0  0  0  1  1  1  1
    0  0  0  0  0  0  0  0  0  0  0  0  0  0  0  1  1  1  1
    0  0  0  0  0  0  0  0  0  0  0  0  0  0  0  0  1  1  1
    0  0  0  0  0  0  0  0  0  0  0  0  0  0  0  0  1  1  1
    0  0  0  0  0  0  0  0  0  0  0  0  0  0  0  0  0  1  1
    0  0  0  0  0  0  0  0  0  0  0  0  0  0  0  0  0  1  0
    0  0  0  0  0  0  0  0  0  0  0  0  0  0  0  0  0  0  0
    0  0  0  0  0  0  0  0  0  0  0  0  0  0  0  0  0  0  0
END griddata

