# File generated by Flopy version 3.9.1 on 06/14/2025 at 10:34:05.
BEGIN options
  PRINT_INPUT
  PRINT_FLOWS
  SAVE_FLOWS
END options

BEGIN dimensions
  MAXBOUND  6
END dimensions

BEGIN period  1
  1 26 10 -8.30000000E-04
  1 29 6 -7.20000000E-04
  1 34 12 -4.30000000E-03
END period  1

