# File generated by Flopy version 3.9.1 on 06/14/2025 at 10:34:05.
BEGIN options
  PRINT_INPUT
  PRINT_FLOWS
  SAVE_FLOWS
END options

BEGIN dimensions
  MAXBOUND  6
END dimensions

BEGIN period  1
  1 9 15 -8.20000000E-03
  1 11 12 -4.10000000E-03
  1 20 13 -3.90000000E-03
END period  1

