# File generated by Flopy version 3.10.0.dev3 on 06/15/2025 at 08:21:36.
BEGIN options
  BUDGET  FILEOUT  freyberg_2.cbc
  HEAD  FILEOUT  freyberg_2.hds
END options

BEGIN period  1
  SAVE  head  all
  SAVE  budget  all
  PRINT  budget  all
END period  1

