# File generated by Flopy version 3.9.1 on 06/14/2025 at 10:34:05.
BEGIN options
  READASARRAYS
  PRINT_INPUT
  PRINT_FLOWS
  SAVE_FLOWS
END options

BEGIN period  1
  recharge
    CONSTANT  1.60000000E-09
END period  1

