# File generated by Flopy version 3.10.0.dev3 on 06/15/2025 at 08:21:36.
BEGIN options
  PRINT_INPUT
  PRINT_FLOWS
  SAVE_FLOWS
END options

BEGIN packages
  DIS6  freyberg_2.dis  dis
  IC6  freyberg_2.ic  ic
  OC6  freyberg_2.oc  oc
  NPF6  freyberg_2.npf  npf
  STO6  freyberg_2.sto  sto
  RIV6  freyberg_2.riv  riv-1
  WEL6  freyberg_2.wel  wel-1
  RCH6  freyberg_2.rcha  rch-1
END packages

