# File generated by Flopy version 3.9.1 on 06/14/2025 at 10:34:05.
BEGIN options
  auxiliary  ANGLDEGX  CDIST
END options

BEGIN dimensions
  NEXG  42
END dimensions

BEGIN exchangedata
  1 1 1  1 1 1  1     125.00000000     125.00000000     250.00000000       0.00000000     250.00000000
  1 2 1  1 2 1  1     125.00000000     125.00000000     250.00000000       0.00000000     250.00000000
  1 3 2  1 2 1  1     125.00000000     125.00000000     250.00000000      90.00000000     250.00000000
  1 3 2  1 3 2  1     125.00000000     125.00000000     250.00000000       0.00000000     250.00000000
  1 4 2  1 4 2  1     125.00000000     125.00000000     250.00000000       0.00000000     250.00000000
  1 5 3  1 4 2  1     125.00000000     125.00000000     250.00000000      90.00000000     250.00000000
  1 5 3  1 5 3  1     125.00000000     125.00000000     250.00000000       0.00000000     250.00000000
  1 6 3  1 6 3  1     125.00000000     125.00000000     250.00000000       0.00000000     250.00000000
  1 7 4  1 6 3  1     125.00000000     125.00000000     250.00000000      90.00000000     250.00000000
  1 7 4  1 7 4  1     125.00000000     125.00000000     250.00000000       0.00000000     250.00000000
  1 8 4  1 8 4  1     125.00000000     125.00000000     250.00000000       0.00000000     250.00000000
  1 17 9  1 16 8  1     125.00000000     125.00000000     250.00000000      90.00000000     250.00000000
  1 17 9  1 17 9  1     125.00000000     125.00000000     250.00000000       0.00000000     250.00000000
  1 18 9  1 18 9  1     125.00000000     125.00000000     250.00000000       0.00000000     250.00000000
  1 19 10  1 18 9  1     125.00000000     125.00000000     250.00000000      90.00000000     250.00000000
  1 19 10  1 19 10  1     125.00000000     125.00000000     250.00000000       0.00000000     250.00000000
  1 20 10  1 20 10  1     125.00000000     125.00000000     250.00000000       0.00000000     250.00000000
  1 21 11  1 20 10  1     125.00000000     125.00000000     250.00000000      90.00000000     250.00000000
  1 21 11  1 21 11  1     125.00000000     125.00000000     250.00000000       0.00000000     250.00000000
  1 22 11  1 22 11  1     125.00000000     125.00000000     250.00000000       0.00000000     250.00000000
  1 23 12  1 22 11  1     125.00000000     125.00000000     250.00000000      90.00000000     250.00000000
  1 23 12  1 23 12  1     125.00000000     125.00000000     250.00000000       0.00000000     250.00000000
  1 24 12  1 24 12  1     125.00000000     125.00000000     250.00000000       0.00000000     250.00000000
  1 25 13  1 24 12  1     125.00000000     125.00000000     250.00000000      90.00000000     250.00000000
  1 25 13  1 25 13  1     125.00000000     125.00000000     250.00000000       0.00000000     250.00000000
  1 26 13  1 26 13  1     125.00000000     125.00000000     250.00000000       0.00000000     250.00000000
  1 27 14  1 26 13  1     125.00000000     125.00000000     250.00000000      90.00000000     250.00000000
  1 27 14  1 27 14  1     125.00000000     125.00000000     250.00000000       0.00000000     250.00000000
  1 28 14  1 28 14  1     125.00000000     125.00000000     250.00000000       0.00000000     250.00000000
  1 29 15  1 28 14  1     125.00000000     125.00000000     250.00000000      90.00000000     250.00000000
  1 29 15  1 29 15  1     125.00000000     125.00000000     250.00000000       0.00000000     250.00000000
  1 30 15  1 30 15  1     125.00000000     125.00000000     250.00000000       0.00000000     250.00000000
  1 31 16  1 30 15  1     125.00000000     125.00000000     250.00000000      90.00000000     250.00000000
  1 31 16  1 31 16  1     125.00000000     125.00000000     250.00000000       0.00000000     250.00000000
  1 32 16  1 32 16  1     125.00000000     125.00000000     250.00000000       0.00000000     250.00000000
  1 33 17  1 32 16  1     125.00000000     125.00000000     250.00000000      90.00000000     250.00000000
  1 33 17  1 33 17  1     125.00000000     125.00000000     250.00000000       0.00000000     250.00000000
  1 34 17  1 34 17  1     125.00000000     125.00000000     250.00000000       0.00000000     250.00000000
  1 35 18  1 34 17  1     125.00000000     125.00000000     250.00000000      90.00000000     250.00000000
  1 35 18  1 35 18  1     125.00000000     125.00000000     250.00000000       0.00000000     250.00000000
  1 36 18  1 36 18  1     125.00000000     125.00000000     250.00000000       0.00000000     250.00000000
  1 37 19  1 36 18  1     125.00000000     125.00000000     250.00000000      90.00000000     250.00000000
END exchangedata

