# File generated by Flopy version 3.9.1 on 02/19/2025 at 11:03:43.
BEGIN options
END options

BEGIN griddata
  porosity
    CONSTANT       0.14000000
END griddata

