# File generated by Flopy version 3.9.1 on 03/13/2025 at 09:55:31.
BEGIN options
  SAVE_FLOWS
END options

BEGIN packages
  DIS6  gwf-inner.dis  dis
  IC6  gwf-inner.ic  ic
  NPF6  gwf-inner.npf  npf
  STO6  gwf-inner.sto  sto
  RCH6  gwf-inner.rch  rch-1
  WEL6  gwf-inner.wel  wel-1
  OC6  gwf-inner.oc  oc
END packages

