# File generated by Flopy version 3.9.1 on 05/13/2025 at 09:16:08.
BEGIN options
END options

BEGIN dimensions
  MAXBOUND  1
END dimensions

BEGIN period  1
  1 26 26 -1
END period  1

