# File generated by Flopy version 3.9.1 on 05/13/2025 at 09:16:08.
BEGIN options
  SAVE_FLOWS
END options

BEGIN packages
  DIS6  ex-gwf-hani_b.dis  dis
  NPF6  ex-gwf-hani_b.npf  npf
  IC6  ex-gwf-hani_b.ic  ic
  CHD6  ex-gwf-hani_b.chd  chd
  WEL6  ex-gwf-hani_b.wel  wel
  OC6  ex-gwf-hani_b.oc  oc
END packages

