# File generated by Flopy version 3.9.1 on 05/23/2025 at 10:06:37.
BEGIN options
END options

BEGIN griddata
  strt
    CONSTANT       0.00000000
END griddata

