# File generated by Flopy version 3.9.1 on 06/21/2025 at 17:11:21.
BEGIN options
  BUDGET  FILEOUT  ex-gwf-hani_b.cbc
  HEAD  FILEOUT  ex-gwf-hani_b.hds
END options

BEGIN period  1
  SAVE  HEAD  ALL
  SAVE  BUDGET  ALL
END period  1

