# Name file for MT3DMS, generated by Flopy version 3.9.1.
LIST              16  p09_mt.list
FTL               10  mt3d_link.ftl 
BTN               31  p09_mt.btn
ADV               32  p09_mt.adv
DSP               33  p09_mt.dsp
SSM               34  p09_mt.ssm
GCG               35  p09_mt.gcg
