# Name file for MODFLOW-NWT, generated by Flopy version 3.8.2.
#xll:0.0; yll:0.0; rotation:0.0; units:meters; lenuni:2; start_datetime:1-1-1970
LIST               2  flow_1d.list
DIS               11  flow_1d.dis
BAS6              13  flow_1d.bas
UPW               31  flow_1d.upw
GHB               23  flow_1d.ghb
OC                14  flow_1d.oc
NWT               32  flow_1d.nwt
DATA(BINARY)      55  flow_1d.cbc REPLACE
DATA(BINARY)      51  flow_1d.hds REPLACE
