# File generated by Flopy version 3.10.0.dev3 on 06/16/2025 at 08:45:42.
BEGIN options
  auxiliary  depth
  AUXDEPTHNAME  depth
END options

BEGIN dimensions
  MAXBOUND  1919
END dimensions

BEGIN period  1
  1 2 23 9.53710175E+01 2.50000000E+06 1.00000000E+00
  1 2 24 9.45906067E+01 2.50000000E+06 1.00000000E+00
  1 3 16 1.00119522E+02 2.50000000E+06 1.00000000E+00
  1 3 17 9.96467667E+01 2.50000000E+06 1.00000000E+00
  1 3 18 9.91056557E+01 2.50000000E+06 1.00000000E+00
  1 3 19 9.86162796E+01 2.50000000E+06 1.00000000E+00
  1 3 20 9.79271908E+01 2.50000000E+06 1.00000000E+00
  1 3 21 9.71303329E+01 2.50000000E+06 1.00000000E+00
  1 3 22 9.63305244E+01 2.50000000E+06 1.00000000E+00
  1 3 23 9.54070396E+01 2.50000000E+06 1.00000000E+00
  1 3 24 9.43699646E+01 2.50000000E+06 1.00000000E+00
  1 3 25 9.30675983E+01 2.50000000E+06 1.00000000E+00
  1 4 13 1.00735939E+02 2.50000000E+06 1.00000000E+00
  1 4 14 1.00604866E+02 2.50000000E+06 1.00000000E+00
  1 4 15 1.00375830E+02 2.50000000E+06 1.00000000E+00
  1 4 16 1.00048948E+02 2.50000000E+06 1.00000000E+00
  1 4 17 9.96254997E+01 2.50000000E+06 1.00000000E+00
  1 4 18 9.90967255E+01 2.50000000E+06 1.00000000E+00
  1 4 19 9.84974766E+01 2.50000000E+06 1.00000000E+00
  1 4 20 9.77961216E+01 2.50000000E+06 1.00000000E+00
  1 4 21 9.69997959E+01 2.50000000E+06 1.00000000E+00
  1 4 22 9.61243343E+01 2.50000000E+06 1.00000000E+00
  1 4 23 9.51364880E+01 2.50000000E+06 1.00000000E+00
  1 4 24 9.40179920E+01 2.50000000E+06 1.00000000E+00
  1 4 25 9.27165985E+01 2.50000000E+06 1.00000000E+00
  1 5 11 1.00769859E+02 2.50000000E+06 1.00000000E+00
  1 5 12 1.00772095E+02 2.50000000E+06 1.00000000E+00
  1 5 13 1.00685001E+02 2.50000000E+06 1.00000000E+00
  1 5 14 1.00487999E+02 2.50000000E+06 1.00000000E+00
  1 5 15 1.00202631E+02 2.50000000E+06 1.00000000E+00
  1 5 16 9.98247147E+01 2.50000000E+06 1.00000000E+00
  1 5 17 9.93611622E+01 2.50000000E+06 1.00000000E+00
  1 5 18 9.88076096E+01 2.50000000E+06 1.00000000E+00
  1 5 19 9.81721802E+01 2.50000000E+06 1.00000000E+00
  1 5 20 9.74458714E+01 2.50000000E+06 1.00000000E+00
  1 5 21 9.66279869E+01 2.50000000E+06 1.00000000E+00
  1 5 22 9.57090359E+01 2.50000000E+06 1.00000000E+00
  1 5 23 9.46762962E+01 2.50000000E+06 1.00000000E+00
  1 5 24 9.35061893E+01 2.50000000E+06 1.00000000E+00
  1 5 25 9.21806107E+01 2.50000000E+06 1.00000000E+00
  1 6 10 1.00721428E+02 2.50000000E+06 1.00000000E+00
  1 6 11 1.00710999E+02 2.50000000E+06 1.00000000E+00
  1 6 12 1.00620159E+02 2.50000000E+06 1.00000000E+00
  1 6 13 1.00425806E+02 2.50000000E+06 1.00000000E+00
  1 6 14 1.00157690E+02 2.50000000E+06 1.00000000E+00
  1 6 15 9.98010578E+01 2.50000000E+06 1.00000000E+00
  1 6 16 9.93736401E+01 2.50000000E+06 1.00000000E+00
  1 6 17 9.88692398E+01 2.50000000E+06 1.00000000E+00
  1 6 18 9.82861881E+01 2.50000000E+06 1.00000000E+00
  1 6 19 9.76213512E+01 2.50000000E+06 1.00000000E+00
  1 6 20 9.68717194E+01 2.50000000E+06 1.00000000E+00
  1 6 21 9.60276985E+01 2.50000000E+06 1.00000000E+00
  1 6 22 9.50825996E+01 2.50000000E+06 1.00000000E+00
  1 6 23 9.40203686E+01 2.50000000E+06 1.00000000E+00
  1 6 24 9.28231392E+01 2.50000000E+06 1.00000000E+00
  1 6 25 9.14718113E+01 2.50000000E+06 1.00000000E+00
  1 7 9 1.00598457E+02 2.50000000E+06 1.00000000E+00
  1 7 10 1.00599739E+02 2.50000000E+06 1.00000000E+00
  1 7 11 1.00471697E+02 2.50000000E+06 1.00000000E+00
  1 7 12 1.00244429E+02 2.50000000E+06 1.00000000E+00
  1 7 13 9.99503117E+01 2.50000000E+06 1.00000000E+00
  1 7 14 9.95886021E+01 2.50000000E+06 1.00000000E+00
  1 7 15 9.91696205E+01 2.50000000E+06 1.00000000E+00
  1 7 16 9.86845207E+01 2.50000000E+06 1.00000000E+00
  1 7 17 9.81403999E+01 2.50000000E+06 1.00000000E+00
  1 7 18 9.75234394E+01 2.50000000E+06 1.00000000E+00
  1 7 19 9.68352242E+01 2.50000000E+06 1.00000000E+00
  1 7 20 9.60662346E+01 2.50000000E+06 1.00000000E+00
  1 7 21 9.52075443E+01 2.50000000E+06 1.00000000E+00
  1 7 22 9.42466717E+01 2.50000000E+06 1.00000000E+00
  1 7 23 9.31699276E+01 2.50000000E+06 1.00000000E+00
  1 7 24 9.19577599E+01 2.50000000E+06 1.00000000E+00
  1 7 25 9.05924606E+01 2.50000000E+06 1.00000000E+00
  1 8 8 1.01368416E+02 2.50000000E+06 1.00000000E+00
  1 8 9 1.00531677E+02 2.50000000E+06 1.00000000E+00
  1 8 10 1.00306492E+02 2.50000000E+06 1.00000000E+00
  1 8 11 9.99925442E+01 2.50000000E+06 1.00000000E+00
  1 8 12 9.96265163E+01 2.50000000E+06 1.00000000E+00
  1 8 13 9.92170601E+01 2.50000000E+06 1.00000000E+00
  1 8 14 9.87662277E+01 2.50000000E+06 1.00000000E+00
  1 8 15 9.82788353E+01 2.50000000E+06 1.00000000E+00
  1 8 16 9.77454739E+01 2.50000000E+06 1.00000000E+00
  1 8 17 9.71577148E+01 2.50000000E+06 1.00000000E+00
  1 8 18 9.65150223E+01 2.50000000E+06 1.00000000E+00
  1 8 19 9.58064690E+01 2.50000000E+06 1.00000000E+00
  1 8 20 9.50251808E+01 2.50000000E+06 1.00000000E+00
  1 8 21 9.41598034E+01 2.50000000E+06 1.00000000E+00
  1 8 22 9.31969070E+01 2.50000000E+06 1.00000000E+00
  1 8 23 9.21204166E+01 2.50000000E+06 1.00000000E+00
  1 8 24 9.09101753E+01 2.50000000E+06 1.00000000E+00
  1 8 25 8.95434513E+01 2.50000000E+06 1.00000000E+00
  1 9 7 1.01260969E+02 2.50000000E+06 1.00000000E+00
  1 9 8 1.00669603E+02 2.50000000E+06 1.00000000E+00
  1 9 9 1.00285709E+02 2.50000000E+06 1.00000000E+00
  1 9 10 9.97982750E+01 2.50000000E+06 1.00000000E+00
  1 9 11 9.92794285E+01 2.50000000E+06 1.00000000E+00
  1 9 12 9.87401524E+01 2.50000000E+06 1.00000000E+00
  1 9 13 9.82077312E+01 2.50000000E+06 1.00000000E+00
  1 9 14 9.76673489E+01 2.50000000E+06 1.00000000E+00
  1 9 15 9.71148396E+01 2.50000000E+06 1.00000000E+00
  1 9 16 9.65307941E+01 2.50000000E+06 1.00000000E+00
  1 9 17 9.59128571E+01 2.50000000E+06 1.00000000E+00
  1 9 18 9.52455425E+01 2.50000000E+06 1.00000000E+00
  1 9 19 9.45238400E+01 2.50000000E+06 1.00000000E+00
  1 9 20 9.37382526E+01 2.50000000E+06 1.00000000E+00
  1 9 21 9.28776035E+01 2.50000000E+06 1.00000000E+00
  1 9 22 9.19272747E+01 2.50000000E+06 1.00000000E+00
  1 9 23 9.08675442E+01 2.50000000E+06 1.00000000E+00
  1 9 24 8.96781387E+01 2.50000000E+06 1.00000000E+00
  1 9 25 8.83290501E+01 2.50000000E+06 1.00000000E+00
  1 10 5 1.02266701E+02 2.50000000E+06 1.00000000E+00
  1 10 6 1.01755066E+02 2.50000000E+06 1.00000000E+00
  1 10 7 1.01180140E+02 2.50000000E+06 1.00000000E+00
  1 10 8 1.00522022E+02 2.50000000E+06 1.00000000E+00
  1 10 9 9.97810230E+01 2.50000000E+06 1.00000000E+00
  1 10 10 9.90082207E+01 2.50000000E+06 1.00000000E+00
  1 10 11 9.82438812E+01 2.50000000E+06 1.00000000E+00
  1 10 12 9.75313988E+01 2.50000000E+06 1.00000000E+00
  1 10 13 9.68747253E+01 2.50000000E+06 1.00000000E+00
  1 10 14 9.62594833E+01 2.50000000E+06 1.00000000E+00
  1 10 15 9.56512890E+01 2.50000000E+06 1.00000000E+00
  1 10 16 9.50302982E+01 2.50000000E+06 1.00000000E+00
  1 10 17 9.43833065E+01 2.50000000E+06 1.00000000E+00
  1 10 18 9.36995525E+01 2.50000000E+06 1.00000000E+00
  1 10 19 9.29717865E+01 2.50000000E+06 1.00000000E+00
  1 10 20 9.21911488E+01 2.50000000E+06 1.00000000E+00
  1 10 21 9.13486118E+01 2.50000000E+06 1.00000000E+00
  1 10 22 9.04250736E+01 2.50000000E+06 1.00000000E+00
  1 10 23 8.94018078E+01 2.50000000E+06 1.00000000E+00
  1 10 24 8.82558422E+01 2.50000000E+06 1.00000000E+00
  1 10 25 8.69529705E+01 2.50000000E+06 1.00000000E+00
  1 11 4 1.02852043E+02 2.50000000E+06 1.00000000E+00
  1 11 5 1.02459557E+02 2.50000000E+06 1.00000000E+00
  1 11 6 1.01876072E+02 2.50000000E+06 1.00000000E+00
  1 11 7 1.01095842E+02 2.50000000E+06 1.00000000E+00
  1 11 8 1.00127640E+02 2.50000000E+06 1.00000000E+00
  1 11 9 9.90384121E+01 2.50000000E+06 1.00000000E+00
  1 11 10 9.78983555E+01 2.50000000E+06 1.00000000E+00
  1 11 11 9.68207016E+01 2.50000000E+06 1.00000000E+00
  1 11 12 9.59241428E+01 2.50000000E+06 1.00000000E+00
  1 11 13 9.51764526E+01 2.50000000E+06 1.00000000E+00
  1 11 14 9.45095825E+01 2.50000000E+06 1.00000000E+00
  1 11 15 9.38696728E+01 2.50000000E+06 1.00000000E+00
  1 11 16 9.32218800E+01 2.50000000E+06 1.00000000E+00
  1 11 17 9.25538769E+01 2.50000000E+06 1.00000000E+00
  1 11 18 9.18586407E+01 2.50000000E+06 1.00000000E+00
  1 11 19 9.11318245E+01 2.50000000E+06 1.00000000E+00
  1 11 20 9.03663654E+01 2.50000000E+06 1.00000000E+00
  1 11 21 8.95537910E+01 2.50000000E+06 1.00000000E+00
  1 11 22 8.86782761E+01 2.50000000E+06 1.00000000E+00
  1 11 23 8.77113552E+01 2.50000000E+06 1.00000000E+00
  1 11 24 8.66364346E+01 2.50000000E+06 1.00000000E+00
  1 11 25 8.54094048E+01 2.50000000E+06 1.00000000E+00
  1 12 4 1.03151304E+02 2.50000000E+06 1.00000000E+00
  1 12 5 1.02674040E+02 2.50000000E+06 1.00000000E+00
  1 12 6 1.01924032E+02 2.50000000E+06 1.00000000E+00
  1 12 7 1.00888346E+02 2.50000000E+06 1.00000000E+00
  1 12 8 9.95960236E+01 2.50000000E+06 1.00000000E+00
  1 12 9 9.80179291E+01 2.50000000E+06 1.00000000E+00
  1 12 10 9.63825111E+01 2.50000000E+06 1.00000000E+00
  1 12 11 9.48853664E+01 2.50000000E+06 1.00000000E+00
  1 12 12 9.38226280E+01 2.50000000E+06 1.00000000E+00
  1 12 13 9.30576401E+01 2.50000000E+06 1.00000000E+00
  1 12 14 9.24001522E+01 2.50000000E+06 1.00000000E+00
  1 12 15 9.17564106E+01 2.50000000E+06 1.00000000E+00
  1 12 16 9.10935383E+01 2.50000000E+06 1.00000000E+00
  1 12 17 9.04061890E+01 2.50000000E+06 1.00000000E+00
  1 12 18 8.97021465E+01 2.50000000E+06 1.00000000E+00
  1 12 19 8.89806919E+01 2.50000000E+06 1.00000000E+00
  1 12 20 8.82399120E+01 2.50000000E+06 1.00000000E+00
  1 12 21 8.74724007E+01 2.50000000E+06 1.00000000E+00
  1 12 22 8.66607952E+01 2.50000000E+06 1.00000000E+00
  1 12 23 8.57878723E+01 2.50000000E+06 1.00000000E+00
  1 12 24 8.48080215E+01 2.50000000E+06 1.00000000E+00
  1 12 25 8.36996651E+01 2.50000000E+06 1.00000000E+00
  1 13 3 1.03844902E+02 2.50000000E+06 1.00000000E+00
  1 13 4 1.03499714E+02 2.50000000E+06 1.00000000E+00
  1 13 5 1.02852629E+02 2.50000000E+06 1.00000000E+00
  1 13 6 1.01914019E+02 2.50000000E+06 1.00000000E+00
  1 13 7 1.00641621E+02 2.50000000E+06 1.00000000E+00
  1 13 8 9.89553909E+01 2.50000000E+06 1.00000000E+00
  1 13 9 9.68735218E+01 2.50000000E+06 1.00000000E+00
  1 13 10 9.42478790E+01 2.50000000E+06 1.00000000E+00
  1 13 11 9.20843792E+01 2.50000000E+06 1.00000000E+00
  1 13 12 9.10915718E+01 2.50000000E+06 1.00000000E+00
  1 13 13 9.04996452E+01 2.50000000E+06 1.00000000E+00
  1 13 14 8.99349613E+01 2.50000000E+06 1.00000000E+00
  1 13 15 8.93132153E+01 2.50000000E+06 1.00000000E+00
  1 13 16 8.86329308E+01 2.50000000E+06 1.00000000E+00
  1 13 17 8.79213505E+01 2.50000000E+06 1.00000000E+00
  1 13 18 8.72034531E+01 2.50000000E+06 1.00000000E+00
  1 13 19 8.64892120E+01 2.50000000E+06 1.00000000E+00
  1 13 20 8.57778854E+01 2.50000000E+06 1.00000000E+00
  1 13 21 8.50679035E+01 2.50000000E+06 1.00000000E+00
  1 13 22 8.43491325E+01 2.50000000E+06 1.00000000E+00
  1 13 23 8.35853004E+01 2.50000000E+06 1.00000000E+00
  1 13 24 8.27672234E+01 2.50000000E+06 1.00000000E+00
  1 13 25 8.18039246E+01 2.50000000E+06 1.00000000E+00
  1 14 3 1.04227423E+02 2.50000000E+06 1.00000000E+00
  1 14 4 1.03775400E+02 2.50000000E+06 1.00000000E+00
  1 14 5 1.03014132E+02 2.50000000E+06 1.00000000E+00
  1 14 6 1.01927078E+02 2.50000000E+06 1.00000000E+00
  1 14 7 1.00447229E+02 2.50000000E+06 1.00000000E+00
  1 14 8 9.85007286E+01 2.50000000E+06 1.00000000E+00
  1 14 9 9.58033981E+01 2.50000000E+06 1.00000000E+00
  1 14 10 9.19392929E+01 2.50000000E+06 1.00000000E+00
  1 14 12 8.75905418E+01 2.50000000E+06 1.00000000E+00
  1 14 13 8.76009388E+01 2.50000000E+06 1.00000000E+00
  1 14 14 8.71728058E+01 2.50000000E+06 1.00000000E+00
  1 14 15 8.65654602E+01 2.50000000E+06 1.00000000E+00
  1 14 16 8.58381786E+01 2.50000000E+06 1.00000000E+00
  1 14 17 8.50657730E+01 2.50000000E+06 1.00000000E+00
  1 14 18 8.43283577E+01 2.50000000E+06 1.00000000E+00
  1 14 19 8.36228561E+01 2.50000000E+06 1.00000000E+00
  1 14 20 8.29405899E+01 2.50000000E+06 1.00000000E+00
  1 14 21 8.23015881E+01 2.50000000E+06 1.00000000E+00
  1 14 22 8.16845531E+01 2.50000000E+06 1.00000000E+00
  1 14 23 8.10936852E+01 2.50000000E+06 1.00000000E+00
  1 14 24 8.04582291E+01 2.50000000E+06 1.00000000E+00
  1 14 25 7.97346802E+01 2.50000000E+06 1.00000000E+00
  1 15 2 1.04792526E+02 2.50000000E+06 1.00000000E+00
  1 15 3 1.04573000E+02 2.50000000E+06 1.00000000E+00
  1 15 4 1.04040125E+02 2.50000000E+06 1.00000000E+00
  1 15 5 1.03197710E+02 2.50000000E+06 1.00000000E+00
  1 15 6 1.02012617E+02 2.50000000E+06 1.00000000E+00
  1 15 7 1.00431377E+02 2.50000000E+06 1.00000000E+00
  1 15 8 9.83502789E+01 2.50000000E+06 1.00000000E+00
  1 15 9 9.55693245E+01 2.50000000E+06 1.00000000E+00
  1 15 10 9.16786423E+01 2.50000000E+06 1.00000000E+00
  1 15 13 8.47070045E+01 2.50000000E+06 1.00000000E+00
  1 15 14 8.41959324E+01 2.50000000E+06 1.00000000E+00
  1 15 15 8.35812702E+01 2.50000000E+06 1.00000000E+00
  1 15 16 8.26826725E+01 2.50000000E+06 1.00000000E+00
  1 15 17 8.17786903E+01 2.50000000E+06 1.00000000E+00
  1 15 18 8.10407715E+01 2.50000000E+06 1.00000000E+00
  1 15 19 8.03464661E+01 2.50000000E+06 1.00000000E+00
  1 15 20 7.96708450E+01 2.50000000E+06 1.00000000E+00
  1 15 21 7.91041870E+01 2.50000000E+06 1.00000000E+00
  1 15 22 7.86293221E+01 2.50000000E+06 1.00000000E+00
  1 15 23 7.82551613E+01 2.50000000E+06 1.00000000E+00
  1 15 24 7.79090061E+01 2.50000000E+06 1.00000000E+00
  1 15 25 7.74493694E+01 2.50000000E+06 1.00000000E+00
  1 16 2 1.05304497E+02 2.50000000E+06 1.00000000E+00
  1 16 3 1.04903563E+02 2.50000000E+06 1.00000000E+00
  1 16 4 1.04302950E+02 2.50000000E+06 1.00000000E+00
  1 16 5 1.03406689E+02 2.50000000E+06 1.00000000E+00
  1 16 6 1.02181051E+02 2.50000000E+06 1.00000000E+00
  1 16 7 1.00583469E+02 2.50000000E+06 1.00000000E+00
  1 16 8 9.85566273E+01 2.50000000E+06 1.00000000E+00
  1 16 9 9.60022392E+01 2.50000000E+06 1.00000000E+00
  1 16 10 9.28777657E+01 2.50000000E+06 1.00000000E+00
  1 16 11 8.95237465E+01 2.50000000E+06 1.00000000E+00
  1 16 20 7.58038292E+01 2.50000000E+06 1.00000000E+00
  1 16 21 7.54428902E+01 2.50000000E+06 1.00000000E+00
  1 16 22 7.50053234E+01 2.50000000E+06 1.00000000E+00
  1 16 23 7.50061970E+01 2.50000000E+06 1.00000000E+00
  1 16 24 7.50509548E+01 2.50000000E+06 1.00000000E+00
  1 16 25 7.49813251E+01 2.50000000E+06 1.00000000E+00
  1 17 1 1.05846878E+02 2.50000000E+06 1.00000000E+00
  1 17 2 1.05594604E+02 2.50000000E+06 1.00000000E+00
  1 17 3 1.05192329E+02 2.50000000E+06 1.00000000E+00
  1 17 4 1.04548677E+02 2.50000000E+06 1.00000000E+00
  1 17 5 1.03628437E+02 2.50000000E+06 1.00000000E+00
  1 17 6 1.02404186E+02 2.50000000E+06 1.00000000E+00
  1 17 7 1.00852926E+02 2.50000000E+06 1.00000000E+00
  1 17 8 9.89550591E+01 2.50000000E+06 1.00000000E+00
  1 17 9 9.66830597E+01 2.50000000E+06 1.00000000E+00
  1 17 10 9.40973663E+01 2.50000000E+06 1.00000000E+00
  1 17 11 9.13169327E+01 2.50000000E+06 1.00000000E+00
  1 17 12 8.86064835E+01 2.50000000E+06 1.00000000E+00
  1 17 13 8.61875610E+01 2.50000000E+06 1.00000000E+00
  1 17 14 8.40398922E+01 2.50000000E+06 1.00000000E+00
  1 17 15 8.22331200E+01 2.50000000E+06 1.00000000E+00
  1 17 16 8.05484142E+01 2.50000000E+06 1.00000000E+00
  1 17 17 7.87925243E+01 2.50000000E+06 1.00000000E+00
  1 17 18 7.69889374E+01 2.50000000E+06 1.00000000E+00
  1 17 24 7.19476204E+01 2.50000000E+06 1.00000000E+00
  1 17 25 7.23290939E+01 2.50000000E+06 1.00000000E+00
  1 18 1 1.05866692E+02 2.50000000E+06 1.00000000E+00
  1 18 2 1.05786449E+02 2.50000000E+06 1.00000000E+00
  1 18 3 1.05405695E+02 2.50000000E+06 1.00000000E+00
  1 18 4 1.04759184E+02 2.50000000E+06 1.00000000E+00
  1 18 5 1.03842617E+02 2.50000000E+06 1.00000000E+00
  1 18 6 1.02643339E+02 2.50000000E+06 1.00000000E+00
  1 18 7 1.01159466E+02 2.50000000E+06 1.00000000E+00
  1 18 8 9.93923244E+01 2.50000000E+06 1.00000000E+00
  1 18 9 9.73579922E+01 2.50000000E+06 1.00000000E+00
  1 18 10 9.50885906E+01 2.50000000E+06 1.00000000E+00
  1 18 11 9.27038479E+01 2.50000000E+06 1.00000000E+00
  1 18 12 9.03136806E+01 2.50000000E+06 1.00000000E+00
  1 18 13 8.80499172E+01 2.50000000E+06 1.00000000E+00
  1 18 14 8.59536743E+01 2.50000000E+06 1.00000000E+00
  1 18 15 8.40200348E+01 2.50000000E+06 1.00000000E+00
  1 18 16 8.21847153E+01 2.50000000E+06 1.00000000E+00
  1 18 17 8.03651867E+01 2.50000000E+06 1.00000000E+00
  1 18 18 7.85673103E+01 2.50000000E+06 1.00000000E+00
  1 18 19 7.67875900E+01 2.50000000E+06 1.00000000E+00
  1 18 20 7.49784565E+01 2.50000000E+06 1.00000000E+00
  1 18 21 7.31816196E+01 2.50000000E+06 1.00000000E+00
  1 18 22 7.12686405E+01 2.50000000E+06 1.00000000E+00
  1 18 25 6.95876884E+01 2.50000000E+06 1.00000000E+00
  1 19 1 1.05957415E+02 2.50000000E+06 1.00000000E+00
  1 19 2 1.05945715E+02 2.50000000E+06 1.00000000E+00
  1 19 3 1.05569757E+02 2.50000000E+06 1.00000000E+00
  1 19 4 1.04927320E+02 2.50000000E+06 1.00000000E+00
  1 19 5 1.04023048E+02 2.50000000E+06 1.00000000E+00
  1 19 6 1.02860632E+02 2.50000000E+06 1.00000000E+00
  1 19 7 1.01444738E+02 2.50000000E+06 1.00000000E+00
  1 19 8 9.97900181E+01 2.50000000E+06 1.00000000E+00
  1 19 9 9.79160690E+01 2.50000000E+06 1.00000000E+00
  1 19 10 9.58709431E+01 2.50000000E+06 1.00000000E+00
  1 19 11 9.37028217E+01 2.50000000E+06 1.00000000E+00
  1 19 12 9.15213928E+01 2.50000000E+06 1.00000000E+00
  1 19 13 8.93772793E+01 2.50000000E+06 1.00000000E+00
  1 19 14 8.73173733E+01 2.50000000E+06 1.00000000E+00
  1 19 15 8.53441639E+01 2.50000000E+06 1.00000000E+00
  1 19 16 8.34356270E+01 2.50000000E+06 1.00000000E+00
  1 19 17 8.15638618E+01 2.50000000E+06 1.00000000E+00
  1 19 18 7.97155190E+01 2.50000000E+06 1.00000000E+00
  1 19 19 7.78773785E+01 2.50000000E+06 1.00000000E+00
  1 19 20 7.60274982E+01 2.50000000E+06 1.00000000E+00
  1 19 21 7.41540203E+01 2.50000000E+06 1.00000000E+00
  1 19 22 7.22072697E+01 2.50000000E+06 1.00000000E+00
  1 19 23 7.01628551E+01 2.50000000E+06 1.00000000E+00
  1 20 1 1.06127630E+02 2.50000000E+06 1.00000000E+00
  1 20 2 1.06080786E+02 2.50000000E+06 1.00000000E+00
  1 20 3 1.05685141E+02 2.50000000E+06 1.00000000E+00
  1 20 4 1.05042393E+02 2.50000000E+06 1.00000000E+00
  1 20 5 1.04152994E+02 2.50000000E+06 1.00000000E+00
  1 20 6 1.03021132E+02 2.50000000E+06 1.00000000E+00
  1 20 7 1.01657480E+02 2.50000000E+06 1.00000000E+00
  1 20 8 1.00084280E+02 2.50000000E+06 1.00000000E+00
  1 20 9 9.83283386E+01 2.50000000E+06 1.00000000E+00
  1 20 10 9.64102974E+01 2.50000000E+06 1.00000000E+00
  1 20 11 9.44003105E+01 2.50000000E+06 1.00000000E+00
  1 20 12 9.23284817E+01 2.50000000E+06 1.00000000E+00
  1 20 13 9.02645454E+01 2.50000000E+06 1.00000000E+00
  1 20 14 8.82274017E+01 2.50000000E+06 1.00000000E+00
  1 20 15 8.62361832E+01 2.50000000E+06 1.00000000E+00
  1 20 16 8.42889919E+01 2.50000000E+06 1.00000000E+00
  1 20 17 8.23736267E+01 2.50000000E+06 1.00000000E+00
  1 20 18 8.04839725E+01 2.50000000E+06 1.00000000E+00
  1 20 19 7.86029491E+01 2.50000000E+06 1.00000000E+00
  1 20 20 7.67207699E+01 2.50000000E+06 1.00000000E+00
  1 20 21 7.48168945E+01 2.50000000E+06 1.00000000E+00
  1 20 22 7.28684502E+01 2.50000000E+06 1.00000000E+00
  1 20 23 7.08531437E+01 2.50000000E+06 1.00000000E+00
  1 20 24 6.87397137E+01 2.50000000E+06 1.00000000E+00
  1 21 1 1.06259457E+02 2.50000000E+06 1.00000000E+00
  1 21 2 1.06139772E+02 2.50000000E+06 1.00000000E+00
  1 21 3 1.05737965E+02 2.50000000E+06 1.00000000E+00
  1 21 4 1.05093397E+02 2.50000000E+06 1.00000000E+00
  1 21 5 1.04211143E+02 2.50000000E+06 1.00000000E+00
  1 21 6 1.03099619E+02 2.50000000E+06 1.00000000E+00
  1 21 7 1.01773378E+02 2.50000000E+06 1.00000000E+00
  1 21 8 1.00250938E+02 2.50000000E+06 1.00000000E+00
  1 21 9 9.85623150E+01 2.50000000E+06 1.00000000E+00
  1 21 10 9.67314243E+01 2.50000000E+06 1.00000000E+00
  1 21 11 9.47903805E+01 2.50000000E+06 1.00000000E+00
  1 21 12 9.27902546E+01 2.50000000E+06 1.00000000E+00
  1 21 13 9.07608891E+01 2.50000000E+06 1.00000000E+00
  1 21 14 8.87344093E+01 2.50000000E+06 1.00000000E+00
  1 21 15 8.67286873E+01 2.50000000E+06 1.00000000E+00
  1 21 16 8.47507706E+01 2.50000000E+06 1.00000000E+00
  1 21 17 8.27989960E+01 2.50000000E+06 1.00000000E+00
  1 21 18 8.08720646E+01 2.50000000E+06 1.00000000E+00
  1 21 19 7.89607220E+01 2.50000000E+06 1.00000000E+00
  1 21 20 7.70569363E+01 2.50000000E+06 1.00000000E+00
  1 21 21 7.51460915E+01 2.50000000E+06 1.00000000E+00
  1 21 22 7.32125912E+01 2.50000000E+06 1.00000000E+00
  1 21 23 7.12363205E+01 2.50000000E+06 1.00000000E+00
  1 21 24 6.91959991E+01 2.50000000E+06 1.00000000E+00
  1 21 25 6.70568104E+01 2.50000000E+06 1.00000000E+00
  1 22 1 1.06285826E+02 2.50000000E+06 1.00000000E+00
  1 22 2 1.06131811E+02 2.50000000E+06 1.00000000E+00
  1 22 3 1.05721394E+02 2.50000000E+06 1.00000000E+00
  1 22 4 1.05069843E+02 2.50000000E+06 1.00000000E+00
  1 22 5 1.04186895E+02 2.50000000E+06 1.00000000E+00
  1 22 6 1.03082834E+02 2.50000000E+06 1.00000000E+00
  1 22 7 1.01771872E+02 2.50000000E+06 1.00000000E+00
  1 22 8 1.00274744E+02 2.50000000E+06 1.00000000E+00
  1 22 9 9.86164131E+01 2.50000000E+06 1.00000000E+00
  1 22 10 9.68171329E+01 2.50000000E+06 1.00000000E+00
  1 22 11 9.49101505E+01 2.50000000E+06 1.00000000E+00
  1 22 12 9.29281063E+01 2.50000000E+06 1.00000000E+00
  1 22 13 9.09052086E+01 2.50000000E+06 1.00000000E+00
  1 22 14 8.88678341E+01 2.50000000E+06 1.00000000E+00
  1 22 15 8.68373566E+01 2.50000000E+06 1.00000000E+00
  1 22 16 8.48259449E+01 2.50000000E+06 1.00000000E+00
  1 22 17 8.28384647E+01 2.50000000E+06 1.00000000E+00
  1 22 18 8.08792419E+01 2.50000000E+06 1.00000000E+00
  1 22 19 7.89427910E+01 2.50000000E+06 1.00000000E+00
  1 22 20 7.70272102E+01 2.50000000E+06 1.00000000E+00
  1 22 21 7.51216450E+01 2.50000000E+06 1.00000000E+00
  1 22 22 7.32173119E+01 2.50000000E+06 1.00000000E+00
  1 22 23 7.13040524E+01 2.50000000E+06 1.00000000E+00
  1 22 24 6.93611221E+01 2.50000000E+06 1.00000000E+00
  1 22 25 6.73972340E+01 2.50000000E+06 1.00000000E+00
  1 23 1 1.06248550E+02 2.50000000E+06 1.00000000E+00
  1 23 2 1.06062119E+02 2.50000000E+06 1.00000000E+00
  1 23 3 1.05633095E+02 2.50000000E+06 1.00000000E+00
  1 23 4 1.04965233E+02 2.50000000E+06 1.00000000E+00
  1 23 5 1.04072277E+02 2.50000000E+06 1.00000000E+00
  1 23 6 1.02960213E+02 2.50000000E+06 1.00000000E+00
  1 23 7 1.01645781E+02 2.50000000E+06 1.00000000E+00
  1 23 8 1.00146593E+02 2.50000000E+06 1.00000000E+00
  1 23 9 9.84848347E+01 2.50000000E+06 1.00000000E+00
  1 23 10 9.66799984E+01 2.50000000E+06 1.00000000E+00
  1 23 11 9.47622032E+01 2.50000000E+06 1.00000000E+00
  1 23 12 9.27620335E+01 2.50000000E+06 1.00000000E+00
  1 23 13 9.07137375E+01 2.50000000E+06 1.00000000E+00
  1 23 14 8.86428909E+01 2.50000000E+06 1.00000000E+00
  1 23 15 8.65713043E+01 2.50000000E+06 1.00000000E+00
  1 23 16 8.45124111E+01 2.50000000E+06 1.00000000E+00
  1 23 17 8.24880791E+01 2.50000000E+06 1.00000000E+00
  1 23 18 8.04934025E+01 2.50000000E+06 1.00000000E+00
  1 23 19 7.85374889E+01 2.50000000E+06 1.00000000E+00
  1 23 20 7.66135864E+01 2.50000000E+06 1.00000000E+00
  1 23 21 7.47201328E+01 2.50000000E+06 1.00000000E+00
  1 23 22 7.28513756E+01 2.50000000E+06 1.00000000E+00
  1 23 23 7.09980774E+01 2.50000000E+06 1.00000000E+00
  1 23 24 6.91799259E+01 2.50000000E+06 1.00000000E+00
  1 23 25 6.73614101E+01 2.50000000E+06 1.00000000E+00
  1 24 1 1.06162170E+02 2.50000000E+06 1.00000000E+00
  1 24 2 1.05927067E+02 2.50000000E+06 1.00000000E+00
  1 24 3 1.05465765E+02 2.50000000E+06 1.00000000E+00
  1 24 4 1.04777468E+02 2.50000000E+06 1.00000000E+00
  1 24 5 1.03861210E+02 2.50000000E+06 1.00000000E+00
  1 24 6 1.02729998E+02 2.50000000E+06 1.00000000E+00
  1 24 7 1.01393461E+02 2.50000000E+06 1.00000000E+00
  1 24 8 9.98681698E+01 2.50000000E+06 1.00000000E+00
  1 24 9 9.81698265E+01 2.50000000E+06 1.00000000E+00
  1 24 10 9.63260365E+01 2.50000000E+06 1.00000000E+00
  1 24 11 9.43540249E+01 2.50000000E+06 1.00000000E+00
  1 24 12 9.23046684E+01 2.50000000E+06 1.00000000E+00
  1 24 13 9.01936817E+01 2.50000000E+06 1.00000000E+00
  1 24 14 8.80620251E+01 2.50000000E+06 1.00000000E+00
  1 24 15 8.59275379E+01 2.50000000E+06 1.00000000E+00
  1 24 16 8.38132744E+01 2.50000000E+06 1.00000000E+00
  1 24 17 8.17339077E+01 2.50000000E+06 1.00000000E+00
  1 24 18 7.97056198E+01 2.50000000E+06 1.00000000E+00
  1 24 19 7.77238293E+01 2.50000000E+06 1.00000000E+00
  1 24 20 7.57946587E+01 2.50000000E+06 1.00000000E+00
  1 24 21 7.39163361E+01 2.50000000E+06 1.00000000E+00
  1 24 22 7.20801601E+01 2.50000000E+06 1.00000000E+00
  1 24 23 7.02838116E+01 2.50000000E+06 1.00000000E+00
  1 24 24 6.85895424E+01 2.50000000E+06 1.00000000E+00
  1 24 25 6.69505196E+01 2.50000000E+06 1.00000000E+00
  1 25 1 1.05982105E+02 2.50000000E+06 1.00000000E+00
  1 25 2 1.05706202E+02 2.50000000E+06 1.00000000E+00
  1 25 3 1.05219133E+02 2.50000000E+06 1.00000000E+00
  1 25 4 1.04500902E+02 2.50000000E+06 1.00000000E+00
  1 25 5 1.03556650E+02 2.50000000E+06 1.00000000E+00
  1 25 6 1.02392178E+02 2.50000000E+06 1.00000000E+00
  1 25 7 1.01017422E+02 2.50000000E+06 1.00000000E+00
  1 25 8 9.94404125E+01 2.50000000E+06 1.00000000E+00
  1 25 9 9.76840057E+01 2.50000000E+06 1.00000000E+00
  1 25 10 9.57482777E+01 2.50000000E+06 1.00000000E+00
  1 25 11 9.36907673E+01 2.50000000E+06 1.00000000E+00
  1 25 12 9.15424843E+01 2.50000000E+06 1.00000000E+00
  1 25 13 8.93487873E+01 2.50000000E+06 1.00000000E+00
  1 25 14 8.71244335E+01 2.50000000E+06 1.00000000E+00
  1 25 15 8.49033260E+01 2.50000000E+06 1.00000000E+00
  1 25 16 8.27015209E+01 2.50000000E+06 1.00000000E+00
  1 25 17 8.05647812E+01 2.50000000E+06 1.00000000E+00
  1 25 18 7.84955387E+01 2.50000000E+06 1.00000000E+00
  1 25 19 7.64841614E+01 2.50000000E+06 1.00000000E+00
  1 25 20 7.45250034E+01 2.50000000E+06 1.00000000E+00
  1 26 1 1.05673149E+02 2.50000000E+06 1.00000000E+00
  1 26 2 1.05403996E+02 2.50000000E+06 1.00000000E+00
  1 26 3 1.04886631E+02 2.50000000E+06 1.00000000E+00
  1 26 4 1.04139116E+02 2.50000000E+06 1.00000000E+00
  1 26 5 1.03158640E+02 2.50000000E+06 1.00000000E+00
  1 26 6 1.01957893E+02 2.50000000E+06 1.00000000E+00
  1 26 7 1.00531618E+02 2.50000000E+06 1.00000000E+00
  1 26 8 9.88864861E+01 2.50000000E+06 1.00000000E+00
  1 26 9 9.70286732E+01 2.50000000E+06 1.00000000E+00
  1 26 10 9.49752445E+01 2.50000000E+06 1.00000000E+00
  1 26 11 9.27607708E+01 2.50000000E+06 1.00000000E+00
  1 26 12 9.04869137E+01 2.50000000E+06 1.00000000E+00
  1 26 13 8.81708775E+01 2.50000000E+06 1.00000000E+00
  1 26 14 8.58392105E+01 2.50000000E+06 1.00000000E+00
  1 26 15 8.34688683E+01 2.50000000E+06 1.00000000E+00
  1 26 16 8.11469707E+01 2.50000000E+06 1.00000000E+00
  1 26 17 7.89550133E+01 2.50000000E+06 1.00000000E+00
  1 26 22 7.14618435E+01 2.50000000E+06 1.00000000E+00
  1 26 23 7.04022064E+01 2.50000000E+06 1.00000000E+00
  1 26 24 6.93088188E+01 2.50000000E+06 1.00000000E+00
  1 26 25 6.80541172E+01 2.50000000E+06 1.00000000E+00
  1 27 2 1.05042210E+02 2.50000000E+06 1.00000000E+00
  1 27 3 1.04476933E+02 2.50000000E+06 1.00000000E+00
  1 27 4 1.03690613E+02 2.50000000E+06 1.00000000E+00
  1 27 5 1.02676140E+02 2.50000000E+06 1.00000000E+00
  1 27 6 1.01429796E+02 2.50000000E+06 1.00000000E+00
  1 27 7 9.99521809E+01 2.50000000E+06 1.00000000E+00
  1 27 8 9.82228355E+01 2.50000000E+06 1.00000000E+00
  1 27 9 9.62357693E+01 2.50000000E+06 1.00000000E+00
  1 27 10 9.39955864E+01 2.50000000E+06 1.00000000E+00
  1 27 11 9.15701218E+01 2.50000000E+06 1.00000000E+00
  1 27 12 8.90750618E+01 2.50000000E+06 1.00000000E+00
  1 27 13 8.66393108E+01 2.50000000E+06 1.00000000E+00
  1 27 14 8.42015018E+01 2.50000000E+06 1.00000000E+00
  1 27 15 8.16683006E+01 2.50000000E+06 1.00000000E+00
  1 27 19 7.59164009E+01 2.50000000E+06 1.00000000E+00
  1 27 20 7.50431309E+01 2.50000000E+06 1.00000000E+00
  1 27 21 7.40855179E+01 2.50000000E+06 1.00000000E+00
  1 27 22 7.30154934E+01 2.50000000E+06 1.00000000E+00
  1 27 23 7.18638916E+01 2.50000000E+06 1.00000000E+00
  1 27 24 7.06175327E+01 2.50000000E+06 1.00000000E+00
  1 27 25 6.92759552E+01 2.50000000E+06 1.00000000E+00
  1 28 2 1.04580399E+02 2.50000000E+06 1.00000000E+00
  1 28 3 1.03974693E+02 2.50000000E+06 1.00000000E+00
  1 28 4 1.03170662E+02 2.50000000E+06 1.00000000E+00
  1 28 5 1.02104597E+02 2.50000000E+06 1.00000000E+00
  1 28 6 1.00822269E+02 2.50000000E+06 1.00000000E+00
  1 28 7 9.92992268E+01 2.50000000E+06 1.00000000E+00
  1 28 8 9.75033417E+01 2.50000000E+06 1.00000000E+00
  1 28 9 9.53636208E+01 2.50000000E+06 1.00000000E+00
  1 28 10 9.28728428E+01 2.50000000E+06 1.00000000E+00
  1 28 11 9.00366001E+01 2.50000000E+06 1.00000000E+00
  1 28 12 8.72440033E+01 2.50000000E+06 1.00000000E+00
  1 28 13 8.47379112E+01 2.50000000E+06 1.00000000E+00
  1 28 17 7.91561852E+01 2.50000000E+06 1.00000000E+00
  1 28 18 7.83810291E+01 2.50000000E+06 1.00000000E+00
  1 28 19 7.75106106E+01 2.50000000E+06 1.00000000E+00
  1 28 20 7.65568523E+01 2.50000000E+06 1.00000000E+00
  1 28 21 7.54890938E+01 2.50000000E+06 1.00000000E+00
  1 28 22 7.43117161E+01 2.50000000E+06 1.00000000E+00
  1 28 23 7.30325890E+01 2.50000000E+06 1.00000000E+00
  1 28 24 7.16447105E+01 2.50000000E+06 1.00000000E+00
  1 28 25 7.01696510E+01 2.50000000E+06 1.00000000E+00
  1 29 3 1.03098686E+02 2.50000000E+06 1.00000000E+00
  1 29 4 1.02600149E+02 2.50000000E+06 1.00000000E+00
  1 29 5 1.01422737E+02 2.50000000E+06 1.00000000E+00
  1 29 6 1.00144356E+02 2.50000000E+06 1.00000000E+00
  1 29 7 9.86061611E+01 2.50000000E+06 1.00000000E+00
  1 29 8 9.67685032E+01 2.50000000E+06 1.00000000E+00
  1 29 9 9.45426426E+01 2.50000000E+06 1.00000000E+00
  1 29 10 9.17189274E+01 2.50000000E+06 1.00000000E+00
  1 29 15 8.18505287E+01 2.50000000E+06 1.00000000E+00
  1 29 16 8.12963753E+01 2.50000000E+06 1.00000000E+00
  1 29 17 8.06047459E+01 2.50000000E+06 1.00000000E+00
  1 29 18 7.97790565E+01 2.50000000E+06 1.00000000E+00
  1 29 19 7.88462677E+01 2.50000000E+06 1.00000000E+00
  1 29 20 7.77966881E+01 2.50000000E+06 1.00000000E+00
  1 29 21 7.66330223E+01 2.50000000E+06 1.00000000E+00