# File generated by Flopy version 3.9.1 on 03/11/2025 at 13:08:42.
BEGIN options
END options

BEGIN sources
  WEL-1  AUX  CONCENTRATION
END sources

