# File generated by Flopy version 3.9.1 on 05/27/2025 at 10:29:14.
BEGIN options
  BUDGET  FILEOUT  child.cbc
  HEAD  FILEOUT  child.hds
END options

BEGIN period  1
  SAVE  HEAD  ALL
  SAVE  BUDGET  ALL
END period  1

