# File generated by Flopy version 3.9.1 on 03/19/2025 at 09:46:08.
BEGIN options
END options

BEGIN griddata
  iconvert
    CONSTANT  0
  ss
    CONSTANT       0.00000000
  sy
    CONSTANT       0.00000000
END griddata

