# File generated by Flopy version 3.9.1 on 03/12/2025 at 10:55:08.
BEGIN options
  SCHEME  tvd
END options

