# File generated by Flopy version 3.9.1 on 03/19/2025 at 09:46:08.
BEGIN options
END options

BEGIN continuous  FILEOUT  gwt_p06-mf6.obs.csv
  BCKGRND  concentration  1 16 16
END continuous  FILEOUT  gwt_p06-mf6.obs.csv

