# File generated by Flopy version 3.9.1 on 02/17/2025 at 07:26:40.
BEGIN options
END options

BEGIN sources
  
END sources

