# File generated by Flopy version 3.8.2 on 06/20/2025 at 16:25:43.
BEGIN options
END options

BEGIN dimensions
  MAXBOUND  2
END dimensions

BEGIN period  1
  1 1 1 0
  1 1 3 0
END period  1

