# File generated by Flopy version 3.8.2 on 06/20/2025 at 16:25:43.
BEGIN options
  BUDGET  FILEOUT  ex-gwf-csub-p02.cbc
  HEAD  FILEOUT  ex-gwf-csub-p02.hds
END options

BEGIN period  1
  SAVE  HEAD  ALL
  SAVE  BUDGET  ALL
END period  1

