# File generated by Flopy version 3.9.1 on 03/18/2025 at 15:18:48.
BEGIN options
  SCHEME  upstream
END options

