# Name file for MODPATH, generated by Flopy version 3.9.1.
MPBAS  86 ex6.mpbas
DIS   3 EXAMPLE.DIS
HEAD  88 EXAMPLE.HED
BUDGET  89 EXAMPLE.BUD
