# DIS package for MODFLOW-2005 generated by Flopy 3.9.1
         5        25        25         3         4         1
  0  0  0  0  0
CONSTANT    4.000000E+02                           #delr                          
CONSTANT    4.000000E+02                           #delc                          
CONSTANT    4.000000E+02                           #model_top                     
INTERNAL               1     (FREE) -1 #botm_layer_0                  
   2.700000E+02   2.700000E+02   2.700000E+02   2.700000E+02   2.700000E+02   2.700000E+02   2.700000E+02   2.700000E+02   2.700000E+02   2.700000E+02   2.700000E+02   2.700000E+02   2.700000E+02   2.700000E+02   2.700000E+02   2.700000E+02   2.700000E+02   2.700000E+02   2.700000E+02   2.700000E+02   2.700000E+02   2.700000E+02   2.700000E+02   2.700000E+02   2.700000E+02
   2.700000E+02   2.700000E+02   2.700000E+02   2.700000E+02   2.700000E+02   2.700000E+02   2.700000E+02   2.700000E+02   2.700000E+02   2.700000E+02   2.700000E+02   2.700000E+02   2.700000E+02   2.700000E+02   2.700000E+02   2.700000E+02   2.700000E+02   2.700000E+02   2.700000E+02   2.700000E+02   2.700000E+02   2.700000E+02   2.700000E+02   2.700000E+02   2.700000E+02
   2.700000E+02   2.700000E+02   2.700000E+02   2.700000E+02   2.700000E+02   2.700000E+02   2.700000E+02   2.700000E+02   2.700000E+02   2.700000E+02   2.700000E+02   2.700000E+02   2.700000E+02   2.700000E+02   2.700000E+02   2.700000E+02   2.700000E+02   2.700000E+02   2.700000E+02   2.700000E+02   2.700000E+02   2.700000E+02   2.700000E+02   2.700000E+02   2.700000E+02
   2.700000E+02   2.700000E+02   2.700000E+02   2.700000E+02   2.700000E+02   2.700000E+02   2.700000E+02   2.700000E+02   2.700000E+02   2.700000E+02   2.700000E+02   2.700000E+02   2.700000E+02   2.700000E+02   2.700000E+02   2.700000E+02   2.700000E+02   2.700000E+02   2.700000E+02   2.700000E+02   2.700000E+02   2.700000E+02   2.700000E+02   2.700000E+02   2.700000E+02
   2.700000E+02   2.700000E+02   2.700000E+02   2.700000E+02   2.700000E+02   2.700000E+02   2.700000E+02   2.700000E+02   2.700000E+02   2.700000E+02   2.700000E+02   2.700000E+02   2.700000E+02   2.700000E+02   2.700000E+02   2.700000E+02   2.700000E+02   2.700000E+02   2.700000E+02   2.700000E+02   2.700000E+02   2.700000E+02   2.700000E+02   2.700000E+02   2.700000E+02
   2.700000E+02   2.700000E+02   2.700000E+02   2.700000E+02   2.700000E+02   2.700000E+02   2.700000E+02   2.700000E+02   2.700000E+02   2.700000E+02   2.700000E+02   2.700000E+02   2.700000E+02   2.700000E+02   2.700000E+02   2.700000E+02   2.700000E+02   2.700000E+02   2.700000E+02   2.700000E+02   2.700000E+02   2.700000E+02   2.700000E+02   2.700000E+02   2.700000E+02
   2.700000E+02   2.700000E+02   2.700000E+02   2.700000E+02   2.700000E+02   2.700000E+02   2.700000E+02   2.700000E+02   2.700000E+02   2.700000E+02   2.700000E+02   2.700000E+02   2.700000E+02   2.700000E+02   2.700000E+02   2.700000E+02   2.700000E+02   2.700000E+02   2.700000E+02   2.700000E+02   2.700000E+02   2.700000E+02   2.700000E+02   2.700000E+02   2.700000E+02
   2.700000E+02   2.700000E+02   2.700000E+02   2.700000E+02   2.700000E+02   2.700000E+02   2.700000E+02   2.700000E+02   2.700000E+02   2.700000E+02   2.700000E+02   2.700000E+02   2.700000E+02   2.700000E+02   2.700000E+02   2.700000E+02   2.700000E+02   2.700000E+02   2.700000E+02   2.700000E+02   2.700000E+02   2.700000E+02   2.700000E+02   2.700000E+02   2.700000E+02
   2.700000E+02   2.700000E+02   2.700000E+02   2.700000E+02   2.700000E+02   2.700000E+02   2.700000E+02   2.700000E+02   2.700000E+02   2.700000E+02   2.700000E+02   2.700000E+02   2.700000E+02   2.700000E+02   2.700000E+02   2.700000E+02   2.700000E+02   2.700000E+02   2.700000E+02   2.700000E+02   2.700000E+02   2.700000E+02   2.700000E+02   2.700000E+02   2.700000E+02
   2.700000E+02   2.700000E+02   2.700000E+02   2.700000E+02   2.700000E+02   2.700000E+02   2.700000E+02   2.700000E+02   2.700000E+02   2.700000E+02   2.700000E+02   2.700000E+02   2.700000E+02   2.700000E+02   2.700000E+02   2.700000E+02   2.700000E+02   2.700000E+02   2.700000E+02   2.700000E+02   2.700000E+02   2.700000E+02   2.700000E+02   2.700000E+02   2.700000E+02
   2.700000E+02   2.700000E+02   2.700000E+02   2.700000E+02   2.700000E+02   2.700000E+02   2.700000E+02   2.700000E+02   2.700000E+02   2.700000E+02   2.700000E+02   2.700000E+02   2.700000E+02   2.700000E+02   2.700000E+02   2.700000E+02   2.700000E+02   2.700000E+02   2.700000E+02   2.700000E+02   2.700000E+02   2.700000E+02   2.700000E+02   2.700000E+02   2.700000E+02
   2.700000E+02   2.700000E+02   2.700000E+02   2.700000E+02   2.700000E+02   2.700000E+02   2.700000E+02   2.700000E+02   2.700000E+02   2.700000E+02   2.700000E+02   2.700000E+02   2.700000E+02   2.700000E+02   2.700000E+02   2.700000E+02   2.700000E+02   2.700000E+02   2.700000E+02   2.700000E+02   2.700000E+02   2.700000E+02   2.700000E+02   2.700000E+02   2.700000E+02
   2.700000E+02   2.700000E+02   2.700000E+02   2.700000E+02   2.700000E+02   2.700000E+02   2.700000E+02   2.700000E+02   2.700000E+02   2.700000E+02   2.700000E+02   2.700000E+02   2.700000E+02   2.700000E+02   2.700000E+02   2.700000E+02   2.700000E+02   2.700000E+02   2.700000E+02   2.700000E+02   2.700000E+02   2.700000E+02   2.700000E+02   2.700000E+02   2.700000E+02
   2.700000E+02   2.700000E+02   2.700000E+02   2.700000E+02   2.700000E+02   2.700000E+02   2.700000E+02   2.700000E+02   2.700000E+02   2.700000E+02   2.700000E+02   2.700000E+02   2.700000E+02   2.700000E+02   2.700000E+02   2.700000E+02   2.700000E+02   2.700000E+02   2.700000E+02   2.700000E+02   2.700000E+02   2.700000E+02   2.700000E+02   2.700000E+02   2.700000E+02
   2.700000E+02   2.700000E+02   2.700000E+02   2.700000E+02   2.700000E+02   2.700000E+02   2.700000E+02   2.700000E+02   2.700000E+02   2.700000E+02   2.700000E+02   2.700000E+02   2.700000E+02   2.700000E+02   2.700000E+02   2.700000E+02   2.700000E+02   2.700000E+02   2.700000E+02   2.700000E+02   2.700000E+02   2.700000E+02   2.700000E+02   2.700000E+02   2.700000E+02
   2.700000E+02   2.700000E+02   2.700000E+02   2.700000E+02   2.700000E+02   2.700000E+02   2.700000E+02   2.700000E+02   2.700000E+02   2.700000E+02   2.700000E+02   2.700000E+02   2.700000E+02   2.700000E+02   2.700000E+02   2.700000E+02   2.700000E+02   2.700000E+02   2.700000E+02   2.700000E+02   2.700000E+02   2.700000E+02   2.700000E+02   2.700000E+02   2.700000E+02
   2.700000E+02   2.700000E+02   2.700000E+02   2.700000E+02   2.700000E+02   2.700000E+02   2.700000E+02   2.700000E+02   2.700000E+02   2.700000E+02   2.700000E+02   2.700000E+02   2.700000E+02   2.700000E+02   2.700000E+02   2.700000E+02   2.700000E+02   2.700000E+02   2.700000E+02   2.700000E+02   2.700000E+02   2.700000E+02   2.700000E+02   2.700000E+02   2.700000E+02
   2.700000E+02   2.700000E+02   2.700000E+02   2.700000E+02   2.700000E+02   2.700000E+02   2.700000E+02   2.700000E+02   2.700000E+02   2.700000E+02   2.700000E+02   2.700000E+02   2.700000E+02   2.700000E+02   2.700000E+02   2.700000E+02   2.700000E+02   2.700000E+02   2.700000E+02   2.700000E+02   2.700000E+02   2.700000E+02   2.700000E+02   2.700000E+02   2.700000E+02
   2.700000E+02   2.700000E+02   2.700000E+02   2.700000E+02   2.700000E+02   2.700000E+02   2.700000E+02   2.700000E+02   2.700000E+02   2.700000E+02   2.700000E+02   2.700000E+02   2.700000E+02   2.700000E+02   2.700000E+02   2.700000E+02   2.700000E+02   2.700000E+02   2.700000E+02   2.700000E+02   2.700000E+02   2.700000E+02   2.700000E+02   2.700000E+02   2.700000E+02
   2.700000E+02   2.700000E+02   2.700000E+02   2.700000E+02   2.700000E+02   2.700000E+02   2.700000E+02   2.700000E+02   2.700000E+02   2.700000E+02   2.700000E+02   2.700000E+02   2.700000E+02   2.700000E+02   2.700000E+02   2.700000E+02   2.700000E+02   2.700000E+02   2.700000E+02   2.700000E+02   2.700000E+02   2.700000E+02   2.700000E+02   2.700000E+02   2.700000E+02
   2.700000E+02   2.700000E+02   2.700000E+02   2.700000E+02   2.700000E+02   2.700000E+02   2.700000E+02   2.700000E+02   2.700000E+02   2.700000E+02   2.700000E+02   2.700000E+02   2.700000E+02   2.700000E+02   2.700000E+02   2.700000E+02   2.700000E+02   2.700000E+02   2.700000E+02   2.700000E+02   2.700000E+02   2.700000E+02   2.700000E+02   2.700000E+02   2.700000E+02
   2.700000E+02   2.700000E+02   2.700000E+02   2.700000E+02   2.700000E+02   2.700000E+02   2.700000E+02   2.700000E+02   2.700000E+02   2.700000E+02   2.700000E+02   2.700000E+02   2.700000E+02   2.700000E+02   2.700000E+02   2.700000E+02   2.700000E+02   2.700000E+02   2.700000E+02   2.700000E+02   2.700000E+02   2.700000E+02   2.700000E+02   2.700000E+02   2.700000E+02
   2.700000E+02   2.700000E+02   2.700000E+02   2.700000E+02   2.700000E+02   2.700000E+02   2.700000E+02   2.700000E+02   2.700000E+02   2.700000E+02   2.700000E+02   2.700000E+02   2.700000E+02   2.700000E+02   2.700000E+02   2.700000E+02   2.700000E+02   2.700000E+02   2.700000E+02   2.700000E+02   2.700000E+02   2.700000E+02   2.700000E+02   2.700000E+02   2.700000E+02
   2.700000E+02   2.700000E+02   2.700000E+02   2.700000E+02   2.700000E+02   2.700000E+02   2.700000E+02   2.700000E+02   2.700000E+02   2.700000E+02   2.700000E+02   2.700000E+02   2.700000E+02   2.700000E+02   2.700000E+02   2.700000E+02   2.700000E+02   2.700000E+02   2.700000E+02   2.700000E+02   2.700000E+02   2.700000E+02   2.700000E+02   2.700000E+02   2.700000E+02
   2.700000E+02   2.700000E+02   2.700000E+02   2.700000E+02   2.700000E+02   2.700000E+02   2.700000E+02   2.700000E+02   2.700000E+02   2.700000E+02   2.700000E+02   2.700000E+02   2.700000E+02   2.700000E+02   2.700000E+02   2.700000E+02   2.700000E+02   2.700000E+02   2.700000E+02   2.700000E+02   2.700000E+02   2.700000E+02   2.700000E+02   2.700000E+02   2.700000E+02
INTERNAL               1     (FREE) -1 #botm_layer_1                  
   2.200000E+02   2.200000E+02   2.200000E+02   2.200000E+02   2.200000E+02   2.200000E+02   2.200000E+02   2.200000E+02   2.200000E+02   2.200000E+02   2.200000E+02   2.200000E+02   2.200000E+02   2.200000E+02   2.200000E+02   2.200000E+02   2.200000E+02   2.200000E+02   2.200000E+02   2.200000E+02   2.200000E+02   2.200000E+02   2.200000E+02   2.200000E+02   2.200000E+02
   2.200000E+02   2.200000E+02   2.200000E+02   2.200000E+02   2.200000E+02   2.200000E+02   2.200000E+02   2.200000E+02   2.200000E+02   2.200000E+02   2.200000E+02   2.200000E+02   2.200000E+02   2.200000E+02   2.200000E+02   2.200000E+02   2.200000E+02   2.200000E+02   2.200000E+02   2.200000E+02   2.200000E+02   2.200000E+02   2.200000E+02   2.200000E+02   2.200000E+02
   2.200000E+02   2.200000E+02   2.200000E+02   2.200000E+02   2.200000E+02   2.200000E+02   2.200000E+02   2.200000E+02   2.200000E+02   2.200000E+02   2.200000E+02   2.200000E+02   2.200000E+02   2.200000E+02   2.200000E+02   2.200000E+02   2.200000E+02   2.200000E+02   2.200000E+02   2.200000E+02   2.200000E+02   2.200000E+02   2.200000E+02   2.200000E+02   2.200000E+02
   2.200000E+02   2.200000E+02   2.200000E+02   2.200000E+02   2.200000E+02   2.200000E+02   2.200000E+02   2.200000E+02   2.200000E+02   2.200000E+02   2.200000E+02   2.200000E+02   2.200000E+02   2.200000E+02   2.200000E+02   2.200000E+02   2.200000E+02   2.200000E+02   2.200000E+02   2.200000E+02   2.200000E+02   2.200000E+02   2.200000E+02   2.200000E+02   2.200000E+02
   2.200000E+02   2.200000E+02   2.200000E+02   2.200000E+02   2.200000E+02   2.200000E+02   2.200000E+02   2.200000E+02   2.200000E+02   2.200000E+02   2.200000E+02   2.200000E+02   2.200000E+02   2.200000E+02   2.200000E+02   2.200000E+02   2.200000E+02   2.200000E+02   2.200000E+02   2.200000E+02   2.200000E+02   2.200000E+02   2.200000E+02   2.200000E+02   2.200000E+02
   2.200000E+02   2.200000E+02   2.200000E+02   2.200000E+02   2.200000E+02   2.200000E+02   2.200000E+02   2.200000E+02   2.200000E+02   2.200000E+02   2.200000E+02   2.200000E+02   2.200000E+02   2.200000E+02   2.200000E+02   2.200000E+02   2.200000E+02   2.200000E+02   2.200000E+02   2.200000E+02   2.200000E+02   2.200000E+02   2.200000E+02   2.200000E+02   2.200000E+02
   2.200000E+02   2.200000E+02   2.200000E+02   2.200000E+02   2.200000E+02   2.200000E+02   2.200000E+02   2.200000E+02   2.200000E+02   2.200000E+02   2.200000E+02   2.200000E+02   2.200000E+02   2.200000E+02   2.200000E+02   2.200000E+02   2.200000E+02   2.200000E+02   2.200000E+02   2.200000E+02   2.200000E+02   2.200000E+02   2.200000E+02   2.200000E+02   2.200000E+02
   2.200000E+02   2.200000E+02   2.200000E+02   2.200000E+02   2.200000E+02   2.200000E+02   2.200000E+02   2.200000E+02   2.200000E+02   2.200000E+02   2.200000E+02   2.200000E+02   2.200000E+02   2.200000E+02   2.200000E+02   2.200000E+02   2.200000E+02   2.200000E+02   2.200000E+02   2.200000E+02   2.200000E+02   2.200000E+02   2.200000E+02   2.200000E+02   2.200000E+02
   2.200000E+02   2.200000E+02   2.200000E+02   2.200000E+02   2.200000E+02   2.200000E+02   2.200000E+02   2.200000E+02   2.200000E+02   2.200000E+02   2.200000E+02   2.200000E+02   2.200000E+02   2.200000E+02   2.200000E+02   2.200000E+02   2.200000E+02   2.200000E+02   2.200000E+02   2.200000E+02   2.200000E+02   2.200000E+02   2.200000E+02   2.200000E+02   2.200000E+02
   2.200000E+02   2.200000E+02   2.200000E+02   2.200000E+02   2.200000E+02   2.200000E+02   2.200000E+02   2.200000E+02   2.200000E+02   2.200000E+02   2.200000E+02   2.200000E+02   2.200000E+02   2.200000E+02   2.200000E+02   2.200000E+02   2.200000E+02   2.200000E+02   2.200000E+02   2.200000E+02   2.200000E+02   2.200000E+02   2.200000E+02   2.200000E+02   2.200000E+02
   2.200000E+02   2.200000E+02   2.200000E+02   2.200000E+02   2.200000E+02   2.200000E+02   2.200000E+02   2.200000E+02   2.200000E+02   2.200000E+02   2.200000E+02   2.200000E+02   2.200000E+02   2.200000E+02   2.200000E+02   2.200000E+02   2.200000E+02   2.200000E+02   2.200000E+02   2.200000E+02   2.200000E+02   2.200000E+02   2.200000E+02   2.200000E+02   2.200000E+02
   2.200000E+02   2.200000E+02   2.200000E+02   2.200000E+02   2.200000E+02   2.200000E+02   2.200000E+02   2.200000E+02   2.200000E+02   2.200000E+02   2.200000E+02   2.200000E+02   2.200000E+02   2.200000E+02   2.200000E+02   2.200000E+02   2.200000E+02   2.200000E+02   2.200000E+02   2.200000E+02   2.200000E+02   2.200000E+02   2.200000E+02   2.200000E+02   2.200000E+02
   2.200000E+02   2.200000E+02   2.200000E+02   2.200000E+02   2.200000E+02   2.200000E+02   2.200000E+02   2.200000E+02   2.200000E+02   2.200000E+02   2.200000E+02   2.200000E+02   2.200000E+02   2.200000E+02   2.200000E+02   2.200000E+02   2.200000E+02   2.200000E+02   2.200000E+02   2.200000E+02   2.200000E+02   2.200000E+02   2.200000E+02   2.200000E+02   2.200000E+02
   2.200000E+02   2.200000E+02   2.200000E+02   2.200000E+02   2.200000E+02   2.200000E+02   2.200000E+02   2.200000E+02   2.200000E+02   2.200000E+02   2.200000E+02   2.200000E+02   2.200000E+02   2.200000E+02   2.200000E+02   2.200000E+02   2.200000E+02   2.200000E+02   2.200000E+02   2.200000E+02   2.200000E+02   2.200000E+02   2.200000E+02   2.200000E+02   2.200000E+02
   2.200000E+02   2.200000E+02   2.200000E+02   2.200000E+02   2.200000E+02   2.200000E+02   2.200000E+02   2.200000E+02   2.200000E+02   2.200000E+02   2.200000E+02   2.200000E+02   2.200000E+02   2.200000E+02   2.200000E+02   2.200000E+02   2.200000E+02   2.200000E+02   2.200000E+02   2.200000E+02   2.200000E+02   2.200000E+02   2.200000E+02   2.200000E+02   2.200000E+02
   2.200000E+02   2.200000E+02   2.200000E+02   2.200000E+02   2.200000E+02   2.200000E+02   2.200000E+02   2.200000E+02   2.200000E+02   2.200000E+02   2.200000E+02   2.200000E+02   2.200000E+02   2.200000E+02   2.200000E+02   2.200000E+02   2.200000E+02   2.200000E+02   2.200000E+02   2.200000E+02   2.200000E+02   2.200000E+02   2.200000E+02   2.200000E+02   2.200000E+02
   2.200000E+02   2.200000E+02   2.200000E+02   2.200000E+02   2.200000E+02   2.200000E+02   2.200000E+02   2.200000E+02   2.200000E+02   2.200000E+02   2.200000E+02   2.200000E+02   2.200000E+02   2.200000E+02   2.200000E+02   2.200000E+02   2.200000E+02   2.200000E+02   2.200000E+02   2.200000E+02   2.200000E+02   2.200000E+02   2.200000E+02   2.200000E+02   2.200000E+02
   2.200000E+02   2.200000E+02   2.200000E+02   2.200000E+02   2.200000E+02   2.200000E+02   2.200000E+02   2.200000E+02   2.200000E+02   2.200000E+02   2.200000E+02   2.200000E+02   2.200000E+02   2.200000E+02   2.200000E+02   2.200000E+02   2.200000E+02   2.200000E+02   2.200000E+02   2.200000E+02   2.200000E+02   2.200000E+02   2.200000E+02   2.200000E+02   2.200000E+02
   2.200000E+02   2.200000E+02   2.200000E+02   2.200000E+02   2.200000E+02   2.200000E+02   2.200000E+02   2.200000E+02   2.200000E+02   2.200000E+02   2.200000E+02   2.200000E+02   2.200000E+02   2.200000E+02   2.200000E+02   2.200000E+02   2.200000E+02   2.200000E+02   2.200000E+02   2.200000E+02   2.200000E+02   2.200000E+02   2.200000E+02   2.200000E+02   2.200000E+02
   2.200000E+02   2.200000E+02   2.200000E+02   2.200000E+02   2.200000E+02   2.200000E+02   2.200000E+02   2.200000E+02   2.200000E+02   2.200000E+02   2.200000E+02   2.200000E+02   2.200000E+02   2.200000E+02   2.200000E+02   2.200000E+02   2.200000E+02   2.200000E+02   2.200000E+02   2.200000E+02   2.200000E+02   2.200000E+02   2.200000E+02   2.200000E+02   2.200000E+02
   2.200000E+02   2.200000E+02   2.200000E+02   2.200000E+02   2.200000E+02   2.200000E+02   2.200000E+02   2.200000E+02   2.200000E+02   2.200000E+02   2.200000E+02   2.200000E+02   2.200000E+02   2.200000E+02   2.200000E+02   2.200000E+02   2.200000E+02   2.200000E+02   2.200000E+02   2.200000E+02   2.200000E+02   2.200000E+02   2.200000E+02   2.200000E+02   2.200000E+02
   2.200000E+02   2.200000E+02   2.200000E+02   2.200000E+02   2.200000E+02   2.200000E+02   2.200000E+02   2.200000E+02   2.200000E+02   2.200000E+02   2.200000E+02   2.200000E+02   2.200000E+02   2.200000E+02   2.200000E+02   2.200000E+02   2.200000E+02   2.200000E+02   2.200000E+02   2.200000E+02   2.200000E+02   2.200000E+02   2.200000E+02   2.200000E+02   2.200000E+02
   2.200000E+02   2.200000E+02   2.200000E+02   2.200000E+02   2.200000E+02   2.200000E+02   2.200000E+02   2.200000E+02   2.200000E+02   2.200000E+02   2.200000E+02   2.200000E+02   2.200000E+02   2.200000E+02   2.200000E+02   2.200000E+02   2.200000E+02   2.200000E+02   2.200000E+02   2.200000E+02   2.200000E+02   2.200000E+02   2.200000E+02   2.200000E+02   2.200000E+02
   2.200000E+02   2.200000E+02   2.200000E+02   2.200000E+02   2.200000E+02   2.200000E+02   2.200000E+02   2.200000E+02   2.200000E+02   2.200000E+02   2.200000E+02   2.200000E+02   2.200000E+02   2.200000E+02   2.200000E+02   2.200000E+02   2.200000E+02   2.200000E+02   2.200000E+02   2.200000E+02   2.200000E+02   2.200000E+02   2.200000E+02   2.200000E+02   2.200000E+02
   2.200000E+02   2.200000E+02   2.200000E+02   2.200000E+02   2.200000E+02   2.200000E+02   2.200000E+02   2.200000E+02   2.200000E+02   2.200000E+02   2.200000E+02   2.200000E+02   2.200000E+02   2.200000E+02   2.200000E+02   2.200000E+02   2.200000E+02   2.200000E+02   2.200000E+02   2.200000E+02   2.200000E+02   2.200000E+02   2.200000E+02   2.200000E+02   2.200000E+02
INTERNAL               1     (FREE) -1 #botm_layer_2                  
   2.000000E+02   2.000000E+02   2.000000E+02   2.000000E+02   2.000000E+02   2.000000E+02   2.000000E+02   2.000000E+02   2.000000E+02   2.000000E+02   2.000000E+02   2.000000E+02   2.000000E+02   2.000000E+02   2.000000E+02   2.000000E+02   2.000000E+02   2.000000E+02   2.000000E+02   2.000000E+02   2.000000E+02   2.000000E+02   2.000000E+02   2.000000E+02   2.000000E+02
   2.000000E+02   2.000000E+02   2.000000E+02   2.000000E+02   2.000000E+02   2.000000E+02   2.000000E+02   2.000000E+02   2.000000E+02   2.000000E+02   2.000000E+02   2.000000E+02   2.000000E+02   2.000000E+02   2.000000E+02   2.000000E+02   2.000000E+02   2.000000E+02   2.000000E+02   2.000000E+02   2.000000E+02   2.000000E+02   2.000000E+02   2.000000E+02   2.000000E+02
   2.000000E+02   2.000000E+02   2.000000E+02   2.000000E+02   2.000000E+02   2.000000E+02   2.000000E+02   2.000000E+02   2.000000E+02   2.000000E+02   2.000000E+02   2.000000E+02   2.000000E+02   2.000000E+02   2.000000E+02   2.000000E+02   2.000000E+02   2.000000E+02   2.000000E+02   2.000000E+02   2.000000E+02   2.000000E+02   2.000000E+02   2.000000E+02   2.000000E+02
   2.000000E+02   2.000000E+02   2.000000E+02   2.000000E+02   2.000000E+02   2.000000E+02   2.000000E+02   2.000000E+02   2.000000E+02   2.000000E+02   2.000000E+02   2.000000E+02   2.000000E+02   2.000000E+02   2.000000E+02   2.000000E+02   2.000000E+02   2.000000E+02   2.000000E+02   2.000000E+02   2.000000E+02   2.000000E+02   2.000000E+02   2.000000E+02   2.000000E+02
   2.000000E+02   2.000000E+02   2.000000E+02   2.000000E+02   2.000000E+02   2.000000E+02   2.000000E+02   2.000000E+02   2.000000E+02   2.000000E+02   2.000000E+02   2.000000E+02   2.000000E+02   2.000000E+02   2.000000E+02   2.000000E+02   2.000000E+02   2.000000E+02   2.000000E+02   2.000000E+02   2.000000E+02   2.000000E+02   2.000000E+02   2.000000E+02   2.000000E+02
   2.000000E+02   2.000000E+02   2.000000E+02   2.000000E+02   2.000000E+02   2.000000E+02   2.000000E+02   2.000000E+02   2.000000E+02   2.000000E+02   2.000000E+02   2.000000E+02   2.000000E+02   2.000000E+02   2.000000E+02   2.000000E+02   2.000000E+02   2.000000E+02   2.000000E+02   2.000000E+02   2.000000E+02   2.000000E+02   2.000000E+02   2.000000E+02   2.000000E+02
   2.000000E+02   2.000000E+02   2.000000E+02   2.000000E+02   2.000000E+02   2.000000E+02   2.000000E+02   2.000000E+02   2.000000E+02   2.000000E+02   2.000000E+02   2.000000E+02   2.000000E+02   2.000000E+02   2.000000E+02   2.000000E+02   2.000000E+02   2.000000E+02   2.000000E+02   2.000000E+02   2.000000E+02   2.000000E+02   2.000000E+02   2.000000E+02   2.000000E+02
   2.000000E+02   2.000000E+02   2.000000E+02   2.000000E+02   2.000000E+02   2.000000E+02   2.000000E+02   2.000000E+02   2.000000E+02   2.000000E+02   2.000000E+02   2.000000E+02   2.000000E+02   2.000000E+02   2.000000E+02   2.000000E+02   2.000000E+02   2.000000E+02   2.000000E+02   2.000000E+02   2.000000E+02   2.000000E+02   2.000000E+02   2.000000E+02   2.000000E+02
   2.000000E+02   2.000000E+02   2.000000E+02   2.000000E+02   2.000000E+02   2.000000E+02   2.000000E+02   2.000000E+02   2.000000E+02   2.000000E+02   2.000000E+02   2.000000E+02   2.000000E+02   2.000000E+02   2.000000E+02   2.000000E+02   2.000000E+02   2.000000E+02   2.000000E+02   2.000000E+02   2.000000E+02   2.000000E+02   2.000000E+02   2.000000E+02   2.000000E+02
   2.000000E+02   2.000000E+02   2.000000E+02   2.000000E+02   2.000000E+02   2.000000E+02   2.000000E+02   2.000000E+02   2.000000E+02   2.000000E+02   2.000000E+02   2.000000E+02   2.000000E+02   2.000000E+02   2.000000E+02   2.000000E+02   2.000000E+02   2.000000E+02   2.000000E+02   2.000000E+02   2.000000E+02   2.000000E+02   2.000000E+02   2.000000E+02   2.000000E+02
   2.000000E+02   2.000000E+02   2.000000E+02   2.000000E+02   2.000000E+02   2.000000E+02   2.000000E+02   2.000000E+02   2.000000E+02   2.000000E+02   2.000000E+02   2.000000E+02   2.000000E+02   2.000000E+02   2.000000E+02   2.000000E+02   2.000000E+02   2.000000E+02   2.000000E+02   2.000000E+02   2.000000E+02   2.000000E+02   2.000000E+02   2.000000E+02   2.000000E+02
   2.000000E+02   2.000000E+02   2.000000E+02   2.000000E+02   2.000000E+02   2.000000E+02   2.000000E+02   2.000000E+02   2.000000E+02   2.000000E+02   2.000000E+02   2.000000E+02   2.000000E+02   2.000000E+02   2.000000E+02   2.000000E+02   2.000000E+02   2.000000E+02   2.000000E+02   2.000000E+02   2.000000E+02   2.000000E+02   2.000000E+02   2.000000E+02   2.000000E+02
   2.000000E+02   2.000000E+02   2.000000E+02   2.000000E+02   2.000000E+02   2.000000E+02   2.000000E+02   2.000000E+02   2.000000E+02   2.000000E+02   2.000000E+02   2.000000E+02   2.000000E+02   2.000000E+02   2.000000E+02   2.000000E+02   2.000000E+02   2.000000E+02   2.000000E+02   2.000000E+02   2.000000E+02   2.000000E+02   2.000000E+02   2.000000E+02   2.000000E+02
   2.000000E+02   2.000000E+02   2.000000E+02   2.000000E+02   2.000000E+02   2.000000E+02   2.000000E+02   2.000000E+02   2.000000E+02   2.000000E+02   2.000000E+02   2.000000E+02   2.000000E+02   2.000000E+02   2.000000E+02   2.000000E+02   2.000000E+02   2.000000E+02   2.000000E+02   2.000000E+02   2.000000E+02   2.000000E+02   2.000000E+02   2.000000E+02   2.000000E+02
   2.000000E+02   2.000000E+02   2.000000E+02   2.000000E+02   2.000000E+02   2.000000E+02   2.000000E+02   2.000000E+02   2.000000E+02   2.000000E+02   2.000000E+02   2.000000E+02   2.000000E+02   2.000000E+02   2.000000E+02   2.000000E+02   2.000000E+02   2.000000E+02   2.000000E+02   2.000000E+02   2.000000E+02   2.000000E+02   2.000000E+02   2.000000E+02   2.000000E+02
   2.000000E+02   2.000000E+02   2.000000E+02   2.000000E+02   2.000000E+02   2.000000E+02   2.000000E+02   2.000000E+02   2.000000E+02   2.000000E+02   2.000000E+02   2.000000E+02   2.000000E+02   2.000000E+02   2.000000E+02   2.000000E+02   2.000000E+02   2.000000E+02   2.000000E+02   2.000000E+02   2.000000E+02   2.000000E+02   2.000000E+02   2.000000E+02   2.000000E+02
   2.000000E+02   2.000000E+02   2.000000E+02   2.000000E+02   2.000000E+02   2.000000E+02   2.000000E+02   2.000000E+02   2.000000E+02   2.000000E+02   2.000000E+02   2.000000E+02   2.000000E+02   2.000000E+02   2.000000E+02   2.000000E+02   2.000000E+02   2.000000E+02   2.000000E+02   2.000000E+02   2.000000E+02   2.000000E+02   2.000000E+02   2.000000E+02   2.000000E+02
   2.000000E+02   2.000000E+02   2.000000E+02   2.000000E+02   2.000000E+02   2.000000E+02   2.000000E+02   2.000000E+02   2.000000E+02   2.000000E+02   2.000000E+02   2.000000E+02   2.000000E+02   2.000000E+02   2.000000E+02   2.000000E+02   2.000000E+02   2.000000E+02   2.000000E+02   2.000000E+02   2.000000E+02   2.000000E+02   2.000000E+02   2.000000E+02   2.000000E+02
   2.000000E+02   2.000000E+02   2.000000E+02   2.000000E+02   2.000000E+02   2.000000E+02   2.000000E+02   2.000000E+02   2.000000E+02   2.000000E+02   2.000000E+02   2.000000E+02   2.000000E+02   2.000000E+02   2.000000E+02   2.000000E+02   2.000000E+02   2.000000E+02   2.000000E+02   2.000000E+02   2.000000E+02   2.000000E+02   2.000000E+02   2.000000E+02   2.000000E+02
   2.000000E+02   2.000000E+02   2.000000E+02   2.000000E+02   2.000000E+02   2.000000E+02   2.000000E+02   2.000000E+02   2.000000E+02   2.000000E+02   2.000000E+02   2.000000E+02   2.000000E+02   2.000000E+02   2.000000E+02   2.000000E+02   2.000000E+02   2.000000E+02   2.000000E+02   2.000000E+02   2.000000E+02   2.000000E+02   2.000000E+02   2.000000E+02   2.000000E+02
   2.000000E+02   2.000000E+02   2.000000E+02   2.000000E+02   2.000000E+02   2.000000E+02   2.000000E+02   2.000000E+02   2.000000E+02   2.000000E+02   2.000000E+02   2.000000E+02   2.000000E+02   2.000000E+02   2.000000E+02   2.000000E+02   2.000000E+02   2.000000E+02   2.000000E+02   2.000000E+02   2.000000E+02   2.000000E+02   2.000000E+02   2.000000E+02   2.000000E+02
   2.000000E+02   2.000000E+02   2.000000E+02   2.000000E+02   2.000000E+02   2.000000E+02   2.000000E+02   2.000000E+02   2.000000E+02   2.000000E+02   2.000000E+02   2.000000E+02   2.000000E+02   2.000000E+02   2.000000E+02   2.000000E+02   2.000000E+02   2.000000E+02   2.000000E+02   2.000000E+02   2.000000E+02   2.000000E+02   2.000000E+02   2.000000E+02   2.000000E+02
   2.000000E+02   2.000000E+02   2.000000E+02   2.000000E+02   2.000000E+02   2.000000E+02   2.000000E+02   2.000000E+02   2.000000E+02   2.000000E+02   2.000000E+02   2.000000E+02   2.000000E+02   2.000000E+02   2.000000E+02   2.000000E+02   2.000000E+02   2.000000E+02   2.000000E+02   2.000000E+02   2.000000E+02   2.000000E+02   2.000000E+02   2.000000E+02   2.000000E+02
   2.000000E+02   2.000000E+02   2.000000E+02   2.000000E+02   2.000000E+02   2.000000E+02   2.000000E+02   2.000000E+02   2.000000E+02   2.000000E+02   2.000000E+02   2.000000E+02   2.000000E+02   2.000000E+02   2.000000E+02   2.000000E+02   2.000000E+02   2.000000E+02   2.000000E+02   2.000000E+02   2.000000E+02   2.000000E+02   2.000000E+02   2.000000E+02   2.000000E+02
   2.000000E+02   2.000000E+02   2.000000E+02   2.000000E+02   2.000000E+02   2.000000E+02   2.000000E+02   2.000000E+02   2.000000E+02   2.000000E+02   2.000000E+02   2.000000E+02   2.000000E+02   2.000000E+02   2.000000E+02   2.000000E+02   2.000000E+02   2.000000E+02   2.000000E+02   2.000000E+02   2.000000E+02   2.000000E+02   2.000000E+02   2.000000E+02   2.000000E+02
INTERNAL               1     (FREE) -1 #botm_layer_3                  
   1.000000E+02   1.000000E+02   1.000000E+02   1.000000E+02   1.000000E+02   1.000000E+02   1.000000E+02   1.000000E+02   1.000000E+02   1.000000E+02   1.000000E+02   1.000000E+02   1.000000E+02   1.000000E+02   1.000000E+02   1.000000E+02   1.000000E+02   1.000000E+02   1.000000E+02   1.000000E+02   1.000000E+02   1.000000E+02   1.000000E+02   1.000000E+02   1.000000E+02
   1.000000E+02   1.000000E+02   1.000000E+02   1.000000E+02   1.000000E+02   1.000000E+02   1.000000E+02   1.000000E+02   1.000000E+02   1.000000E+02   1.000000E+02   1.000000E+02   1.000000E+02   1.000000E+02   1.000000E+02   1.000000E+02   1.000000E+02   1.000000E+02   1.000000E+02   1.000000E+02   1.000000E+02   1.000000E+02   1.000000E+02   1.000000E+02   1.000000E+02
   1.000000E+02   1.000000E+02   1.000000E+02   1.000000E+02   1.000000E+02   1.000000E+02   1.000000E+02   1.000000E+02   1.000000E+02   1.000000E+02   1.000000E+02   1.000000E+02   1.000000E+02   1.000000E+02   1.000000E+02   1.000000E+02   1.000000E+02   1.000000E+02   1.000000E+02   1.000000E+02   1.000000E+02   1.000000E+02   1.000000E+02   1.000000E+02   1.000000E+02