# WEL package for MODFLOW-2005 generated by Flopy 3.9.1
         1        53  AUXILIARY IFACE
         0         0 # stress period 1
         1         0 # stress period 2
         5        13        13       -150000.0             0.0
         1         0 # stress period 3
         5        13        13       -150000.0             0.0
