# File generated by Flopy version 3.9.1 on 06/27/2025 at 16:42:49.
BEGIN options
END options

BEGIN period  1
  PRINT  BUDGET  ALL
END period  1

