# DIS package for MODFLOW-2005 generated by Flopy 3.9.1
         1        31        31         1         4         2
  0
CONSTANT    1.000000E+01                           #delr                          
CONSTANT    1.000000E+01                           #delc                          
CONSTANT    0.000000E+00                           #model_top                     
CONSTANT   -1.000000E+00                           #botm layer 1                  
     27.000000             1  1.000000  SS
