# File generated by Flopy version 3.9.1 on 06/21/2025 at 10:28:44.
BEGIN options
  BUDGET  FILEOUT  06_ex-gwf-u1disv.cbc
  HEAD  FILEOUT  06_ex-gwf-u1disv.hds
END options

BEGIN period  1
  SAVE  HEAD  ALL
  SAVE  BUDGET  ALL
END period  1

