# File generated by Flopy version 3.9.1 on 06/21/2025 at 10:28:44.
BEGIN options
END options

BEGIN timing
  TDIS6  ex-gwf-u1disv.tdis
END timing

BEGIN models
  gwf6  ex-gwf-u1disv.nam  ex-gwf-u1disv
END models

BEGIN exchanges
END exchanges

BEGIN solutiongroup  1
  ims6  ex-gwf-u1disv.ims  ex-gwf-u1disv
END solutiongroup  1

