# File generated by Flopy version 3.9.1 on 02/27/2025 at 15:42:30.
BEGIN options
END options

BEGIN griddata
  strt
    CONSTANT       0.00000000
END griddata

