# File generated by Flopy version 3.8.2 on 02/21/2025 at 07:37:26.
BEGIN Options
  LENGTH_UNITS  meters
END Options

BEGIN Dimensions
  NLAY  3
  NROW  1
  NCOL  10
END Dimensions

BEGIN GRIDDATA
  delr
    CONSTANT     100.00000000
  delc
    CONSTANT    1000.00000000
  top
    CONSTANT       0.00000000
  botm  LAYERED
    CONSTANT      -5.00000000
    CONSTANT     -20.00000000
    CONSTANT     -30.00000000
END GRIDDATA

