# File generated by Flopy version 3.8.2 on 02/21/2025 at 07:37:26.
BEGIN OPTIONS
END OPTIONS

BEGIN CONTINUOUS  FILEOUT  test001e_UZF_3lay_obshead.out
  h1  head  1 1 2
  h2  head  2 1 2
  h3  head  3 1 2
END CONTINUOUS  FILEOUT  test001e_UZF_3lay_obshead.out

