# File generated by Flopy version 3.9.1 on 05/23/2025 at 10:06:37.
BEGIN options
  BUDGET  FILEOUT  ex-gwf-hani_a.cbc
  HEAD  FILEOUT  ex-gwf-hani_a.hds
END options

BEGIN period  1
  SAVE  HEAD  ALL
  SAVE  BUDGET  ALL
END period  1

