# File generated by Flopy version 3.9.1 on 05/13/2025 at 09:16:08.
BEGIN options
END options

BEGIN griddata
  strt
    CONSTANT       0.00000000
END griddata

