# File generated by Flopy version 3.9.1 on 02/20/2025 at 10:46:56.
BEGIN options
  SCHEME  upstream
END options

