# File generated by Flopy version 3.9.1 on 02/20/2025 at 10:46:56.
BEGIN options
  DIGITS  10
  PRINT_INPUT
END options

BEGIN continuous  FILEOUT  trans.obs.csv
  X008  CONCENTRATION  1 1 51
END continuous  FILEOUT  trans.obs.csv

