# File generated by Flopy version 3.9.1 on 05/18/2025 at 07:59:32.
BEGIN options
  COMPLEXITY  simple
END options

BEGIN nonlinear
  OUTER_DVCLOSE  1.00000000E-06
END nonlinear

BEGIN linear
  INNER_DVCLOSE  1.00000000E-06
  inner_rclose  1.00000000E-06
END linear

