# Name file for MODPATH 7, generated by Flopy version 3.9.1.
MPBAS      ex01_mf6_mp.mpbas
GRBDIS     .\ex01_mf6.dis.grb
TDIS       .\ex01_mf6.tdis
HEAD       .\ex01_mf6.hds
BUDGET     .\ex01_mf6.cbc
