# File generated by Flopy version 3.9.1 on 04/10/2025 at 14:54:45.
BEGIN options
END options

BEGIN griddata
  strt
    CONSTANT       0.00000000
END griddata

