# File generated by Flopy version 3.10.0.dev3 on 06/16/2025 at 08:45:42.
BEGIN options
  auxiliary  ANGLDEGX  CDIST
  NEWTON
END options

BEGIN dimensions
  NEXG  165
END dimensions

BEGIN exchangedata
  1 8 24  1 8 1  1    1250.00000000    1250.00000000    2500.00000000       0.00000000    2500.00000000
  2 8 24  2 8 1  1    1250.00000000    1250.00000000    2500.00000000       0.00000000    2500.00000000
  3 8 24  3 8 1  1    1250.00000000    1250.00000000    2500.00000000       0.00000000    2500.00000000
  4 8 24  4 8 1  1    1250.00000000    1250.00000000    2500.00000000       0.00000000    2500.00000000
  5 8 24  5 8 1  1    1250.00000000    1250.00000000    2500.00000000       0.00000000    2500.00000000
  1 9 24  1 9 1  1    1250.00000000    1250.00000000    2500.00000000       0.00000000    2500.00000000
  2 9 24  2 9 1  1    1250.00000000    1250.00000000    2500.00000000       0.00000000    2500.00000000
  3 9 24  3 9 1  1    1250.00000000    1250.00000000    2500.00000000       0.00000000    2500.00000000
  4 9 24  4 9 1  1    1250.00000000    1250.00000000    2500.00000000       0.00000000    2500.00000000
  5 9 24  5 9 1  1    1250.00000000    1250.00000000    2500.00000000       0.00000000    2500.00000000
  1 10 24  1 10 1  1    1250.00000000    1250.00000000    2500.00000000       0.00000000    2500.00000000
  2 10 24  2 10 1  1    1250.00000000    1250.00000000    2500.00000000       0.00000000    2500.00000000
  3 10 24  3 10 1  1    1250.00000000    1250.00000000    2500.00000000       0.00000000    2500.00000000
  4 10 24  4 10 1  1    1250.00000000    1250.00000000    2500.00000000       0.00000000    2500.00000000
  5 10 24  5 10 1  1    1250.00000000    1250.00000000    2500.00000000       0.00000000    2500.00000000
  1 11 24  1 11 1  1    1250.00000000    1250.00000000    2500.00000000       0.00000000    2500.00000000
  2 11 24  2 11 1  1    1250.00000000    1250.00000000    2500.00000000       0.00000000    2500.00000000
  3 11 24  3 11 1  1    1250.00000000    1250.00000000    2500.00000000       0.00000000    2500.00000000
  4 11 24  4 11 1  1    1250.00000000    1250.00000000    2500.00000000       0.00000000    2500.00000000
  5 11 24  5 11 1  1    1250.00000000    1250.00000000    2500.00000000       0.00000000    2500.00000000
  1 12 24  1 12 1  1    1250.00000000    1250.00000000    2500.00000000       0.00000000    2500.00000000
  2 12 24  2 12 1  1    1250.00000000    1250.00000000    2500.00000000       0.00000000    2500.00000000
  3 12 24  3 12 1  1    1250.00000000    1250.00000000    2500.00000000       0.00000000    2500.00000000
  4 12 24  4 12 1  1    1250.00000000    1250.00000000    2500.00000000       0.00000000    2500.00000000
  5 12 24  5 12 1  1    1250.00000000    1250.00000000    2500.00000000       0.00000000    2500.00000000
  1 13 24  1 13 1  1    1250.00000000    1250.00000000    2500.00000000       0.00000000    2500.00000000
  2 13 24  2 13 1  1    1250.00000000    1250.00000000    2500.00000000       0.00000000    2500.00000000
  3 13 24  3 13 1  1    1250.00000000    1250.00000000    2500.00000000       0.00000000    2500.00000000
  4 13 24  4 13 1  1    1250.00000000    1250.00000000    2500.00000000       0.00000000    2500.00000000
  5 13 24  5 13 1  1    1250.00000000    1250.00000000    2500.00000000       0.00000000    2500.00000000
  1 14 24  1 14 1  1    1250.00000000    1250.00000000    2500.00000000       0.00000000    2500.00000000
  2 14 24  2 14 1  1    1250.00000000    1250.00000000    2500.00000000       0.00000000    2500.00000000
  3 14 24  3 14 1  1    1250.00000000    1250.00000000    2500.00000000       0.00000000    2500.00000000
  4 14 24  4 14 1  1    1250.00000000    1250.00000000    2500.00000000       0.00000000    2500.00000000
  5 14 24  5 14 1  1    1250.00000000    1250.00000000    2500.00000000       0.00000000    2500.00000000
  1 15 24  1 15 1  1    1250.00000000    1250.00000000    2500.00000000       0.00000000    2500.00000000
  2 15 24  2 15 1  1    1250.00000000    1250.00000000    2500.00000000       0.00000000    2500.00000000
  3 15 24  3 15 1  1    1250.00000000    1250.00000000    2500.00000000       0.00000000    2500.00000000
  4 15 24  4 15 1  1    1250.00000000    1250.00000000    2500.00000000       0.00000000    2500.00000000
  5 15 24  5 15 1  1    1250.00000000    1250.00000000    2500.00000000       0.00000000    2500.00000000
  1 16 24  1 16 1  1    1250.00000000    1250.00000000    2500.00000000       0.00000000    2500.00000000
  2 16 24  2 16 1  1    1250.00000000    1250.00000000    2500.00000000       0.00000000    2500.00000000
  3 16 24  3 16 1  1    1250.00000000    1250.00000000    2500.00000000       0.00000000    2500.00000000
  4 16 24  4 16 1  1    1250.00000000    1250.00000000    2500.00000000       0.00000000    2500.00000000
  5 16 24  5 16 1  1    1250.00000000    1250.00000000    2500.00000000       0.00000000    2500.00000000
  1 17 24  1 17 1  1    1250.00000000    1250.00000000    2500.00000000       0.00000000    2500.00000000
  2 17 24  2 17 1  1    1250.00000000    1250.00000000    2500.00000000       0.00000000    2500.00000000
  3 17 24  3 17 1  1    1250.00000000    1250.00000000    2500.00000000       0.00000000    2500.00000000
  4 17 24  4 17 1  1    1250.00000000    1250.00000000    2500.00000000       0.00000000    2500.00000000
  5 17 24  5 17 1  1    1250.00000000    1250.00000000    2500.00000000       0.00000000    2500.00000000
  1 18 24  1 18 1  1    1250.00000000    1250.00000000    2500.00000000       0.00000000    2500.00000000
  2 18 24  2 18 1  1    1250.00000000    1250.00000000    2500.00000000       0.00000000    2500.00000000
  3 18 24  3 18 1  1    1250.00000000    1250.00000000    2500.00000000       0.00000000    2500.00000000
  4 18 24  4 18 1  1    1250.00000000    1250.00000000    2500.00000000       0.00000000    2500.00000000
  5 18 24  5 18 1  1    1250.00000000    1250.00000000    2500.00000000       0.00000000    2500.00000000
  1 19 24  1 19 1  1    1250.00000000    1250.00000000    2500.00000000       0.00000000    2500.00000000
  2 19 24  2 19 1  1    1250.00000000    1250.00000000    2500.00000000       0.00000000    2500.00000000
  3 19 24  3 19 1  1    1250.00000000    1250.00000000    2500.00000000       0.00000000    2500.00000000
  4 19 24  4 19 1  1    1250.00000000    1250.00000000    2500.00000000       0.00000000    2500.00000000
  5 19 24  5 19 1  1    1250.00000000    1250.00000000    2500.00000000       0.00000000    2500.00000000
  1 20 24  1 20 1  1    1250.00000000    1250.00000000    2500.00000000       0.00000000    2500.00000000
  2 20 24  2 20 1  1    1250.00000000    1250.00000000    2500.00000000       0.00000000    2500.00000000
  3 20 24  3 20 1  1    1250.00000000    1250.00000000    2500.00000000       0.00000000    2500.00000000
  4 20 24  4 20 1  1    1250.00000000    1250.00000000    2500.00000000       0.00000000    2500.00000000
  5 20 24  5 20 1  1    1250.00000000    1250.00000000    2500.00000000       0.00000000    2500.00000000
  1 21 24  1 21 1  1    1250.00000000    1250.00000000    2500.00000000       0.00000000    2500.00000000
  2 21 24  2 21 1  1    1250.00000000    1250.00000000    2500.00000000       0.00000000    2500.00000000
  3 21 24  3 21 1  1    1250.00000000    1250.00000000    2500.00000000       0.00000000    2500.00000000
  4 21 24  4 21 1  1    1250.00000000    1250.00000000    2500.00000000       0.00000000    2500.00000000
  5 21 24  5 21 1  1    1250.00000000    1250.00000000    2500.00000000       0.00000000    2500.00000000
  1 22 24  1 22 1  1    1250.00000000    1250.00000000    2500.00000000       0.00000000    2500.00000000
  2 22 24  2 22 1  1    1250.00000000    1250.00000000    2500.00000000       0.00000000    2500.00000000
  3 22 24  3 22 1  1    1250.00000000    1250.00000000    2500.00000000       0.00000000    2500.00000000
  4 22 24  4 22 1  1    1250.00000000    1250.00000000    2500.00000000       0.00000000    2500.00000000
  5 22 24  5 22 1  1    1250.00000000    1250.00000000    2500.00000000       0.00000000    2500.00000000
  1 23 24  1 23 1  1    1250.00000000    1250.00000000    2500.00000000       0.00000000    2500.00000000
  2 23 24  2 23 1  1    1250.00000000    1250.00000000    2500.00000000       0.00000000    2500.00000000
  3 23 24  3 23 1  1    1250.00000000    1250.00000000    2500.00000000       0.00000000    2500.00000000
  4 23 24  4 23 1  1    1250.00000000    1250.00000000    2500.00000000       0.00000000    2500.00000000
  5 23 24  5 23 1  1    1250.00000000    1250.00000000    2500.00000000       0.00000000    2500.00000000
  1 24 24  1 24 1  1    1250.00000000    1250.00000000    2500.00000000       0.00000000    2500.00000000
  2 24 24  2 24 1  1    1250.00000000    1250.00000000    2500.00000000       0.00000000    2500.00000000
  3 24 24  3 24 1  1    1250.00000000    1250.00000000    2500.00000000       0.00000000    2500.00000000
  4 24 24  4 24 1  1    1250.00000000    1250.00000000    2500.00000000       0.00000000    2500.00000000
  5 24 24  5 24 1  1    1250.00000000    1250.00000000    2500.00000000       0.00000000    2500.00000000
  1 25 24  1 25 1  1    1250.00000000    1250.00000000    2500.00000000       0.00000000    2500.00000000
  2 25 24  2 25 1  1    1250.00000000    1250.00000000    2500.00000000       0.00000000    2500.00000000
  3 25 24  3 25 1  1    1250.00000000    1250.00000000    2500.00000000       0.00000000    2500.00000000
  4 25 24  4 25 1  1    1250.00000000    1250.00000000    2500.00000000       0.00000000    2500.00000000
  5 25 24  5 25 1  1    1250.00000000    1250.00000000    2500.00000000       0.00000000    2500.00000000
  1 26 24  1 26 1  1    1250.00000000    1250.00000000    2500.00000000       0.00000000    2500.00000000
  2 26 24  2 26 1  1    1250.00000000    1250.00000000    2500.00000000       0.00000000    2500.00000000
  3 26 24  3 26 1  1    1250.00000000    1250.00000000    2500.00000000       0.00000000    2500.00000000
  4 26 24  4 26 1  1    1250.00000000    1250.00000000    2500.00000000       0.00000000    2500.00000000
  5 26 24  5 26 1  1    1250.00000000    1250.00000000    2500.00000000       0.00000000    2500.00000000
  1 27 24  1 27 1  1    1250.00000000    1250.00000000    2500.00000000       0.00000000    2500.00000000
  2 27 24  2 27 1  1    1250.00000000    1250.00000000    2500.00000000       0.00000000    2500.00000000
  3 27 24  3 27 1  1    1250.00000000    1250.00000000    2500.00000000       0.00000000    2500.00000000
  4 27 24  4 27 1  1    1250.00000000    1250.00000000    2500.00000000       0.00000000    2500.00000000
  5 27 24  5 27 1  1    1250.00000000    1250.00000000    2500.00000000       0.00000000    2500.00000000
  1 28 24  1 28 1  1    1250.00000000    1250.00000000    2500.00000000       0.00000000    2500.00000000
  2 28 24  2 28 1  1    1250.00000000    1250.00000000    2500.00000000       0.00000000    2500.00000000
  3 28 24  3 28 1  1    1250.00000000    1250.00000000    2500.00000000       0.00000000    2500.00000000
  4 28 24  4 28 1  1    1250.00000000    1250.00000000    2500.00000000       0.00000000    2500.00000000
  5 28 24  5 28 1  1    1250.00000000    1250.00000000    2500.00000000       0.00000000    2500.00000000
  1 29 24  1 29 1  1    1250.00000000    1250.00000000    2500.00000000       0.00000000    2500.00000000
  2 29 24  2 29 1  1    1250.00000000    1250.00000000    2500.00000000       0.00000000    2500.00000000
  3 29 24  3 29 1  1    1250.00000000    1250.00000000    2500.00000000       0.00000000    2500.00000000
  4 29 24  4 29 1  1    1250.00000000    1250.00000000    2500.00000000       0.00000000    2500.00000000
  5 29 24  5 29 1  1    1250.00000000    1250.00000000    2500.00000000       0.00000000    2500.00000000
  1 30 24  1 30 1  1    1250.00000000    1250.00000000    2500.00000000       0.00000000    2500.00000000
  2 30 24  2 30 1  1    1250.00000000    1250.00000000    2500.00000000       0.00000000    2500.00000000
  3 30 24  3 30 1  1    1250.00000000    1250.00000000    2500.00000000       0.00000000    2500.00000000
  4 30 24  4 30 1  1    1250.00000000    1250.00000000    2500.00000000       0.00000000    2500.00000000
  5 30 24  5 30 1  1    1250.00000000    1250.00000000    2500.00000000       0.00000000    2500.00000000
  1 31 24  1 31 1  1    1250.00000000    1250.00000000    2500.00000000       0.00000000    2500.00000000
  2 31 24  2 31 1  1    1250.00000000    1250.00000000    2500.00000000       0.00000000    2500.00000000
  3 31 24  3 31 1  1    1250.00000000    1250.00000000    2500.00000000       0.00000000    2500.00000000
  4 31 24  4 31 1  1    1250.00000000    1250.00000000    2500.00000000       0.00000000    2500.00000000
  5 31 24  5 31 1  1    1250.00000000    1250.00000000    2500.00000000       0.00000000    2500.00000000
  1 32 24  1 32 1  1    1250.00000000    1250.00000000    2500.00000000       0.00000000    2500.00000000
  2 32 24  2 32 1  1    1250.00000000    1250.00000000    2500.00000000       0.00000000    2500.00000000
  3 32 24  3 32 1  1    1250.00000000    1250.00000000    2500.00000000       0.00000000    2500.00000000
  4 32 24  4 32 1  1    1250.00000000    1250.00000000    2500.00000000       0.00000000    2500.00000000
  5 32 24  5 32 1  1    1250.00000000    1250.00000000    2500.00000000       0.00000000    2500.00000000
  1 33 24  1 33 1  1    1250.00000000    1250.00000000    2500.00000000       0.00000000    2500.00000000
  2 33 24  2 33 1  1    1250.00000000    1250.00000000    2500.00000000       0.00000000    2500.00000000
  3 33 24  3 33 1  1    1250.00000000    1250.00000000    2500.00000000       0.00000000    2500.00000000
  4 33 24  4 33 1  1    1250.00000000    1250.00000000    2500.00000000       0.00000000    2500.00000000
  5 33 24  5 33 1  1    1250.00000000    1250.00000000    2500.00000000       0.00000000    2500.00000000
  1 34 24  1 34 1  1    1250.00000000    1250.00000000    2500.00000000       0.00000000    2500.00000000
  2 34 24  2 34 1  1    1250.00000000    1250.00000000    2500.00000000       0.00000000    2500.00000000
  3 34 24  3 34 1  1    1250.00000000    1250.00000000    2500.00000000       0.00000000    2500.00000000
  4 34 24  4 34 1  1    1250.00000000    1250.00000000    2500.00000000       0.00000000    2500.00000000
  5 34 24  5 34 1  1    1250.00000000    1250.00000000    2500.00000000       0.00000000    2500.00000000
  1 35 24  1 35 1  1    1250.00000000    1250.00000000    2500.00000000       0.00000000    2500.00000000
  2 35 24  2 35 1  1    1250.00000000    1250.00000000    2500.00000000       0.00000000    2500.00000000
  3 35 24  3 35 1  1    1250.00000000    1250.00000000    2500.00000000       0.00000000    2500.00000000
  4 35 24  4 35 1  1    1250.00000000    1250.00000000    2500.00000000       0.00000000    2500.00000000
  5 35 24  5 35 1  1    1250.00000000    1250.00000000    2500.00000000       0.00000000    2500.00000000
  1 36 24  1 36 1  1    1250.00000000    1250.00000000    2500.00000000       0.00000000    2500.00000000
  2 36 24  2 36 1  1    1250.00000000    1250.00000000    2500.00000000       0.00000000    2500.00000000
  3 36 24  3 36 1  1    1250.00000000    1250.00000000    2500.00000000       0.00000000    2500.00000000
  4 36 24  4 36 1  1    1250.00000000    1250.00000000    2500.00000000       0.00000000    2500.00000000
  5 36 24  5 36 1  1    1250.00000000    1250.00000000    2500.00000000       0.00000000    2500.00000000
  1 37 24  1 37 1  1    1250.00000000    1250.00000000    2500.00000000       0.00000000    2500.00000000
  2 37 24  2 37 1  1    1250.00000000    1250.00000000    2500.00000000       0.00000000    2500.00000000
  3 37 24  3 37 1  1    1250.00000000    1250.00000000    2500.00000000       0.00000000    2500.00000000
  4 37 24  4 37 1  1    1250.00000000    1250.00000000    2500.00000000       0.00000000    2500.00000000
  5 37 24  5 37 1  1    1250.00000000    1250.00000000    2500.00000000       0.00000000    2500.00000000
  1 38 24  1 38 1  1    1250.00000000    1250.00000000    2500.00000000       0.00000000    2500.00000000
  2 38 24  2 38 1  1    1250.00000000    1250.00000000    2500.00000000       0.00000000    2500.00000000
  3 38 24  3 38 1  1    1250.00000000    1250.00000000    2500.00000000       0.00000000    2500.00000000
  4 38 24  4 38 1  1    1250.00000000    1250.00000000    2500.00000000       0.00000000    2500.00000000
  5 38 24  5 38 1  1    1250.00000000    1250.00000000    2500.00000000       0.00000000    2500.00000000
  1 39 24  1 39 1  1    1250.00000000    1250.00000000    2500.00000000       0.00000000    2500.00000000
  2 39 24  2 39 1  1    1250.00000000    1250.00000000    2500.00000000       0.00000000    2500.00000000
  3 39 24  3 39 1  1    1250.00000000    1250.00000000    2500.00000000       0.00000000    2500.00000000
  4 39 24  4 39 1  1    1250.00000000    1250.00000000    2500.00000000       0.00000000    2500.00000000
  5 39 24  5 39 1  1    1250.00000000    1250.00000000    2500.00000000       0.00000000    2500.00000000
  1 40 24  1 40 1  1    1250.00000000    1250.00000000    2500.00000000       0.00000000    2500.00000000
  2 40 24  2 40 1  1    1250.00000000    1250.00000000    2500.00000000       0.00000000    2500.00000000
  3 40 24  3 40 1  1    1250.00000000    1250.00000000    2500.00000000       0.00000000    2500.00000000
  4 40 24  4 40 1  1    1250.00000000    1250.00000000    2500.00000000       0.00000000    2500.00000000
  5 40 24  5 40 1  1    1250.00000000    1250.00000000    2500.00000000       0.00000000    2500.00000000
END exchangedata

