# File generated by Flopy version 3.9.1 on 02/12/2025 at 11:15:48.
BEGIN options
END options

BEGIN dimensions
  NLAY  1
  NROW  1
  NCOL  101
END dimensions

BEGIN griddata
  delr
    CONSTANT      10.00000000
  delc
    CONSTANT       1.00000000
  top
    CONSTANT       0.00000000
  botm
    CONSTANT      -1.00000000
  idomain
    CONSTANT  1
END griddata

