# File generated by Flopy version 3.9.1 on 02/13/2025 at 06:40:07.
BEGIN options
END options

BEGIN sources
  
END sources

