# File generated by Flopy version 3.9.1 on 07/09/2025 at 13:18:17.
BEGIN options
  TIME_UNITS  days
END options

BEGIN dimensions
  NPER  2
END dimensions

BEGIN perioddata
       1.00000000  1       1.00000000
       1.00000000  1       1.00000000
END perioddata

