# File generated by Flopy version 3.8.2 on 06/10/2025 at 15:35:39.
BEGIN Options
  SAVE_FLOWS
END Options

BEGIN GRIDDATA
  icelltype
    INTERNAL  FACTOR  1
    1  1  1  1  1  1  1  1  1  1  1  1  1  1  1  1  1  1  1  1
    1  1  1  1  1  1  1  1  1  1  1  1  1  1  1  1  1  1  1  1
    1  1  1  1  1  1  1  1  1  1  1  1  1  1  1  1  1  1  1  1
    1  1  1  1  1  1  1  1  1  1  1  1  1  1  1  1  1  1  1  1
    1  1  1  1  1  1  1  1  1  1  1  1  1  1  1  1  1  1  1  1
    1  1  1  1  1  1  1  1  1  1  1  1  1  1  1  1  1  1  1  1
    1  1  1  1  1  1  1  1  1  1  1  1  1  1  1  1  1  1  1  1
    1  1  1  1  1  1  1  1  1  1  1  1  1  1  1  1  1  1  1  1
    1  1  1  1  1  1  1  1  1  1  1  1  1  1  1  1  1  1  1  1
    1  1  1  1  1  1  1  1  1  1  1  1  1  1  1  1  1  1  1  1
    1  1  1  1  1  1  1  1  1  1  1  1  1  1  1  1  1  1  1  1
    1  1  1  1  1  1  1  1  1  1  1  1  1  1  1  1  1  1  1  1
    1  1  1  1  1  1  1  1  1  1  1  1  1  1  1  1  1  1  1  1
    1  1  1  1  1  1  1  1  1  1  1  1  1  1  1  1  1  1  1  1
    1  1  1  1  1  1  1  1  1  1  1  1  1  1  1  1  1  1  1  1
    1  1  1  1  1  1  1  1  1  1  1  1  1  1  1  1  1  1  1  1
    1  1  1  1  1  1  1  1  1  1  1  1  1  1  1  1  1  1  1  1
    1  1  1  1  1  1  1  1  1  1  1  1  1  1  1  1  1  1  1  1
    1  1  1  1  1  1  1  1  1  1  1  1  1  1  1  1  1  1  1  1
    1  1  1  1  1  1  1  1  1  1  1  1  1  1  1  1  1  1  1  1
    1  1  1  1  1  1  1  1  1  1  1  1  1  1  1  1  1  1  1  1
    1  1  1  1  1  1  1  1  1  1  1  1  1  1  1  1  1  1  1  1
    1  1  1  1  1  1  1  1  1  1  1  1  1  1  1  1  1  1  1  1
    1  1  1  1  1  1  1  1  1  1  1  1  1  1  1  1  1  1  1  1
    1  1  1  1  1  1  1  1  1  1  1  1  1  1  1  1  1  1  1  1
    1  1  1  1  1  1  1  1  1  1  1  1  1  1  1  1  1  1  1  1
    1  1  1  1  1  1  1  1  1  1  1  1  1  1  1  1  1  1  1  1
    1  1  1  1  1  1  1  1  1  1  1  1  1  1  1  1  1  1  1  1
    1  1  1  1  1  1  1  1  1  1  1  1  1  1  1  1  1  1  1  1
    1  1  1  1  1  1  1  1  1  1  1  1  1  1  1  1  1  1  1  1
    1  1  1  1  1  1  1  1  1  1  1  1  1  1  1  1  1  1  1  1
    1  1  1  1  1  1  1  1  1  1  1  1  1  1  1  1  1  1  1  1
    1  1  1  1  1  1  1  1  1  1  1  1  1  1  1  1  1  1  1  1
    1  1  1  1  1  1  1  1  1  1  1  1  1  1  1  1  1  1  1  1
    1  1  1  1  1  1  1  1  1  1  1  1  1  1  1  1  1  1  1  1
    1  1  1  1  1  1  1  1  1  1  1  1  1  1  1  1  1  1  1  1
    1  1  1  1  1  1  1  1  1  1  1  1  1  1  1  1  1  1  1  1
    1  1  1  1  1  1  1  1  1  1  1  1  1  1  1  1  1  1  1  1
    1  1  1  1  1  1  1  1  1  1  1  1  1  1  1  1  1  1  1  1
    1  1  1  1  1  1  1  1  1  1  1  1  1  1  1  1  1  1  1  1
  k
    INTERNAL  FACTOR  1.0
        11.10000000      11.10000000      11.10000000      11.10000000      11.10000000      11.10000000      11.10000000      11.10000000      11.10000000      11.10000000      11.10000000      11.10000000      11.10000000      11.10000000      11.10000000      11.10000000      11.10000000      11.10000000      11.10000000      11.10000000
        11.10000000      11.10000000      11.10000000      11.10000000      11.10000000      11.10000000      11.10000000      11.10000000      11.10000000      11.10000000      11.10000000      11.10000000      11.10000000      11.10000000      11.10000000      11.10000000      11.10000000      11.10000000      11.10000000      11.10000000
        11.10000000      11.10000000      11.10000000      11.10000000      11.10000000      11.10000000      11.10000000      11.10000000      11.10000000      11.10000000      11.10000000      11.10000000      11.10000000      11.10000000      11.10000000      11.10000000      11.10000000      11.10000000      11.10000000      11.10000000
        11.10000000      11.10000000      11.10000000      11.10000000      11.10000000      11.10000000      11.10000000      11.10000000      11.10000000      11.10000000      11.10000000      11.10000000      11.10000000      11.10000000      11.10000000      11.10000000      11.10000000      11.10000000      11.10000000      11.10000000
        11.10000000      11.10000000      11.10000000      11.10000000      11.10000000      11.10000000      11.10000000      11.10000000      11.10000000      11.10000000      11.10000000      11.10000000      11.10000000      11.10000000      11.10000000      11.10000000      11.10000000      11.10000000      11.10000000      11.10000000
        11.10000000      11.10000000      11.10000000      11.10000000      11.10000000      11.10000000      11.10000000      11.10000000      11.10000000      11.10000000      11.10000000      11.10000000      11.10000000      11.10000000      11.10000000      11.10000000      11.10000000      11.10000000      11.10000000      11.10000000
        11.10000000      11.10000000      11.10000000      11.10000000      11.10000000      11.10000000      11.10000000      11.10000000      11.10000000      11.10000000      11.10000000      11.10000000      11.10000000      11.10000000      11.10000000      11.10000000      11.10000000      11.10000000      11.10000000      11.10000000
        11.10000000      11.10000000      11.10000000      11.10000000      11.10000000      11.10000000      11.10000000      11.10000000      11.10000000      11.10000000      11.10000000      11.10000000      11.10000000      11.10000000      11.10000000      11.10000000      11.10000000      11.10000000      11.10000000      11.10000000
        11.10000000      11.10000000      11.10000000      11.10000000      11.10000000      11.10000000      11.10000000      11.10000000      11.10000000      11.10000000      11.10000000      11.10000000      11.10000000      11.10000000      11.10000000      11.10000000      11.10000000      11.10000000      11.10000000      11.10000000
        11.10000000      11.10000000      11.10000000      11.10000000      11.10000000      11.10000000      11.10000000      11.10000000      11.10000000      11.10000000      11.10000000      11.10000000      11.10000000      11.10000000      11.10000000      11.10000000      11.10000000      11.10000000      11.10000000      11.10000000
        11.10000000      11.10000000      11.10000000      11.10000000      11.10000000      11.10000000      11.10000000      11.10000000      11.10000000      11.10000000      11.10000000      11.10000000      11.10000000      11.10000000      11.10000000      11.10000000      11.10000000      11.10000000      11.10000000      11.10000000
        11.10000000      11.10000000      11.10000000      11.10000000      11.10000000      11.10000000      11.10000000      11.10000000      11.10000000      11.10000000      11.10000000      11.10000000      11.10000000      11.10000000      11.10000000      11.10000000      11.10000000      11.10000000      11.10000000      11.10000000
        11.10000000      11.10000000      11.10000000      11.10000000      11.10000000      11.10000000      11.10000000      11.10000000      11.10000000      11.10000000      11.10000000      11.10000000      11.10000000      11.10000000      11.10000000      11.10000000      11.10000000      11.10000000      11.10000000      11.10000000
        11.10000000      11.10000000      11.10000000      11.10000000      11.10000000      11.10000000      11.10000000      11.10000000      11.10000000      11.10000000      11.10000000      11.10000000      11.10000000      11.10000000      11.10000000      11.10000000      11.10000000      11.10000000      11.10000000      11.10000000
        11.10000000      11.10000000      11.10000000      11.10000000      11.10000000      11.10000000      11.10000000      11.10000000      11.10000000      11.10000000      11.10000000      11.10000000      11.10000000      11.10000000      11.10000000      11.10000000      11.10000000      11.10000000      11.10000000      11.10000000
        11.10000000      11.10000000      11.10000000      11.10000000      11.10000000      11.10000000      11.10000000      11.10000000      11.10000000      11.10000000      11.10000000      11.10000000      11.10000000      11.10000000      11.10000000      11.10000000      11.10000000      11.10000000      11.10000000      11.10000000
        11.10000000      11.10000000      11.10000000      11.10000000      11.10000000      11.10000000      11.10000000      11.10000000      11.10000000      11.10000000      11.10000000      11.10000000      11.10000000      11.10000000      11.10000000      11.10000000      11.10000000      11.10000000      11.10000000      11.10000000
        11.10000000      11.10000000      11.10000000      11.10000000      11.10000000      11.10000000      11.10000000      11.10000000      11.10000000      11.10000000      11.10000000      11.10000000      11.10000000      11.10000000      11.10000000      11.10000000      11.10000000      11.10000000      11.10000000      11.10000000
        11.10000000      11.10000000      11.10000000      11.10000000      11.10000000      11.10000000      11.10000000      11.10000000      11.10000000      11.10000000      11.10000000      11.10000000      11.10000000      11.10000000      11.10000000      11.10000000      11.10000000      11.10000000      11.10000000      11.10000000
        11.10000000      11.10000000      11.10000000      11.10000000      11.10000000      11.10000000      11.10000000      11.10000000      11.10000000      11.10000000      11.10000000      11.10000000      11.10000000      11.10000000      11.10000000      11.10000000      11.10000000      11.10000000      11.10000000      11.10000000
        11.10000000      11.10000000      11.10000000      11.10000000      11.10000000      11.10000000      11.10000000      11.10000000      11.10000000      11.10000000      11.10000000      11.10000000      11.10000000      11.10000000      11.10000000      11.10000000      11.10000000      11.10000000      11.10000000      11.10000000
        11.10000000      11.10000000      11.10000000      11.10000000      11.10000000      11.10000000      11.10000000      11.10000000      11.10000000      11.10000000      11.10000000      11.10000000      11.10000000      11.10000000      11.10000000      11.10000000      11.10000000      11.10000000      11.10000000      11.10000000
        11.10000000      11.10000000      11.10000000      11.10000000      11.10000000      11.10000000      11.10000000      11.10000000      11.10000000      11.10000000      11.10000000      11.10000000      11.10000000      11.10000000      11.10000000      11.10000000      11.10000000      11.10000000      11.10000000      11.10000000
        11.10000000      11.10000000      11.10000000      11.10000000      11.10000000      11.10000000      11.10000000      11.10000000      11.10000000      11.10000000      11.10000000      11.10000000      11.10000000      11.10000000      11.10000000      11.10000000      11.10000000      11.10000000      11.10000000      11.10000000
        11.10000000      11.10000000      11.10000000      11.10000000      11.10000000      11.10000000      11.10000000      11.10000000      11.10000000      11.10000000      11.10000000      11.10000000      11.10000000      11.10000000      11.10000000      11.10000000      11.10000000      11.10000000      11.10000000      11.10000000
        11.10000000      11.10000000      11.10000000      11.10000000      11.10000000      11.10000000      11.10000000      11.10000000      11.10000000      11.10000000      11.10000000      11.10000000      11.10000000      11.10000000      11.10000000      11.10000000      11.10000000      11.10000000      11.10000000      11.10000000
        11.10000000      11.10000000      11.10000000      11.10000000      11.10000000      11.10000000      11.10000000      11.10000000      11.10000000      11.10000000      11.10000000      11.10000000      11.10000000      11.10000000      11.10000000      11.10000000      11.10000000      11.10000000      11.10000000      11.10000000
        11.10000000      11.10000000      11.10000000      11.10000000      11.10000000      11.10000000      11.10000000      11.10000000      11.10000000      11.10000000      11.10000000      11.10000000      11.10000000      11.10000000      11.10000000      11.10000000      11.10000000      11.10000000      11.10000000      11.10000000
        11.10000000      11.10000000      11.10000000      11.10000000      11.10000000      11.10000000      11.10000000      11.10000000      11.10000000      11.10000000      11.10000000      11.10000000      11.10000000      11.10000000      11.10000000      11.10000000      11.10000000      11.10000000      11.10000000      11.10000000
        11.10000000      11.10000000      11.10000000      11.10000000      11.10000000      11.10000000      11.10000000      11.10000000      11.10000000      11.10000000      11.10000000      11.10000000      11.10000000      11.10000000      11.10000000      11.10000000      11.10000000      11.10000000      11.10000000      11.10000000
        11.10000000      11.10000000      11.10000000      11.10000000      11.10000000      11.10000000      11.10000000      11.10000000      11.10000000      11.10000000      11.10000000      11.10000000      11.10000000      11.10000000      11.10000000      11.10000000      11.10000000      11.10000000      11.10000000      11.10000000
        11.10000000      11.10000000      11.10000000      11.10000000      11.10000000      11.10000000      11.10000000      11.10000000      11.10000000      11.10000000      11.10000000      11.10000000      11.10000000      11.10000000      11.10000000      11.10000000      11.10000000      11.10000000      11.10000000      11.10000000
        11.10000000      11.10000000      11.10000000      11.10000000      11.10000000      11.10000000      11.10000000      11.10000000      11.10000000      11.10000000      11.10000000      11.10000000      11.10000000      11.10000000      11.10000000      11.10000000      11.10000000      11.10000000      11.10000000      11.10000000
        11.10000000      11.10000000      11.10000000      11.10000000      11.10000000      11.10000000      11.10000000      11.10000000      11.10000000      11.10000000      11.10000000      11.10000000      11.10000000      11.10000000      11.10000000      11.10000000      11.10000000      11.10000000      11.10000000      11.10000000
        11.10000000      11.10000000      11.10000000      11.10000000      11.10000000      11.10000000      11.10000000      11.10000000      11.10000000      11.10000000      11.10000000      11.10000000      11.10000000      11.10000000      11.10000000      11.10000000      11.10000000      11.10000000      11.10000000      11.10000000
        11.10000000      11.10000000      11.10000000      11.10000000      11.10000000      11.10000000      11.10000000      11.10000000      11.10000000      11.10000000      11.10000000      11.10000000      11.10000000      11.10000000      11.10000000      11.10000000      11.10000000      11.10000000      11.10000000      11.10000000
        11.10000000      11.10000000      11.10000000      11.10000000      11.10000000      11.10000000      11.10000000      11.10000000      11.10000000      11.10000000      11.10000000      11.10000000      11.10000000      11.10000000      11.10000000      11.10000000      11.10000000      11.10000000      11.10000000      11.10000000
        11.10000000      11.10000000      11.10000000      11.10000000      11.10000000      11.10000000      11.10000000      11.10000000      11.10000000      11.10000000      11.10000000      11.10000000      11.10000000      11.10000000      11.10000000      11.10000000      11.10000000      11.10000000      11.10000000      11.10000000
        11.10000000      11.10000000      11.10000000      11.10000000      11.10000000      11.10000000      11.10000000      11.10000000      11.10000000      11.10000000      11.10000000      11.10000000      11.10000000      11.10000000      11.10000000      11.10000000      11.10000000      11.10000000      11.10000000      11.10000000
        11.10000000      11.10000000      11.10000000      11.10000000      11.10000000      11.10000000      11.10000000      11.10000000      11.10000000      11.10000000      11.10000000      11.10000000      11.10000000      11.10000000      11.10000000      11.10000000      11.10000000      11.10000000      11.10000000      11.10000000
  k33
    INTERNAL  FACTOR  1.0
         1.11000000       1.11000000       1.11000000       1.11000000       1.11000000       1.11000000       1.11000000       1.11000000       1.11000000       1.11000000       1.11000000       1.11000000       1.11000000       1.11000000       1.11000000       1.11000000       1.11000000       1.11000000       1.11000000       1.11000000
         1.11000000       1.11000000       1.11000000       1.11000000       1.11000000       1.11000000       1.11000000       1.11000000       1.11000000       1.11000000       1.11000000       1.11000000       1.11000000       1.11000000       1.11000000       1.11000000       1.11000000       1.11000000       1.11000000       1.11000000
         1.11000000       1.11000000       1.11000000       1.11000000       1.11000000       1.11000000       1.11000000       1.11000000       1.11000000       1.11000000       1.11000000       1.11000000       1.11000000       1.11000000       1.11000000       1.11000000       1.11000000       1.11000000       1.11000000       1.11000000
         1.11000000       1.11000000       1.11000000       1.11000000       1.11000000       1.11000000       1.11000000       1.11000000       1.11000000       1.11000000       1.11000000       1.11000000       1.11000000       1.11000000       1.11000000       1.11000000       1.11000000       1.11000000       1.11000000       1.11000000
         1.11000000       1.11000000       1.11000000       1.11000000       1.11000000       1.11000000       1.11000000       1.11000000       1.11000000       1.11000000       1.11000000       1.11000000       1.11000000       1.11000000       1.11000000       1.11000000       1.11000000       1.11000000       1.11000000       1.11000000
         1.11000000       1.11000000       1.11000000       1.11000000       1.11000000       1.11000000       1.11000000       1.11000000       1.11000000       1.11000000       1.11000000       1.11000000       1.11000000       1.11000000       1.11000000       1.11000000       1.11000000       1.11000000       1.11000000       1.11000000
         1.11000000       1.11000000       1.11000000       1.11000000       1.11000000       1.11000000       1.11000000       1.11000000       1.11000000       1.11000000       1.11000000       1.11000000       1.11000000       1.11000000       1.11000000       1.11000000       1.11000000       1.11000000       1.11000000       1.11000000
         1.11000000       1.11000000       1.11000000       1.11000000       1.11000000       1.11000000       1.11000000       1.11000000       1.11000000       1.11000000       1.11000000       1.11000000       1.11000000       1.11000000       1.11000000       1.11000000       1.11000000       1.11000000       1.11000000       1.11000000
         1.11000000       1.11000000       1.11000000       1.11000000       1.11000000       1.11000000       1.11000000       1.11000000       1.11000000       1.11000000       1.11000000       1.11000000       1.11000000       1.11000000       1.11000000       1.11000000       1.11000000       1.11000000       1.11000000       1.11000000
         1.11000000       1.11000000       1.11000000       1.11000000       1.11000000       1.11000000       1.11000000       1.11000000       1.11000000       1.11000000       1.11000000       1.11000000       1.11000000       1.11000000       1.11000000       1.11000000       1.11000000       1.11000000       1.11000000       1.11000000
         1.11000000       1.11000000       1.11000000       1.11000000       1.11000000       1.11000000       1.11000000       1.11000000       1.11000000       1.11000000       1.11000000       1.11000000       1.11000000       1.11000000       1.11000000       1.11000000       1.11000000       1.11000000       1.11000000       1.11000000
         1.11000000       1.11000000       1.11000000       1.11000000       1.11000000       1.11000000       1.11000000       1.11000000       1.11000000       1.11000000       1.11000000       1.11000000       1.11000000       1.11000000       1.11000000       1.11000000       1.11000000       1.11000000       1.11000000       1.11000000
         1.11000000       1.11000000       1.11000000       1.11000000       1.11000000       1.11000000       1.11000000       1.11000000       1.11000000       1.11000000       1.11000000       1.11000000       1.11000000       1.11000000       1.11000000       1.11000000       1.11000000       1.11000000       1.11000000       1.11000000
         1.11000000       1.11000000       1.11000000       1.11000000       1.11000000       1.11000000       1.11000000       1.11000000       1.11000000       1.11000000       1.11000000       1.11000000       1.11000000       1.11000000       1.11000000       1.11000000       1.11000000       1.11000000       1.11000000       1.11000000
         1.11000000       1.11000000       1.11000000       1.11000000       1.11000000       1.11000000       1.11000000       1.11000000       1.11000000       1.11000000       1.11000000       1.11000000       1.11000000       1.11000000       1.11000000       1.11000000       1.11000000       1.11000000       1.11000000       1.11000000
         1.11000000       1.11000000       1.11000000       1.11000000       1.11000000       1.11000000       1.11000000       1.11000000       1.11000000       1.11000000       1.11000000       1.11000000       1.11000000       1.11000000       1.11000000       1.11000000       1.11000000       1.11000000       1.11000000       1.11000000
         1.11000000       1.11000000       1.11000000       1.11000000       1.11000000       1.11000000       1.11000000       1.11000000       1.11000000       1.11000000       1.11000000       1.11000000       1.11000000       1.11000000       1.11000000       1.11000000       1.11000000       1.11000000       1.11000000       1.11000000
         1.11000000       1.11000000       1.11000000       1.11000000       1.11000000       1.11000000       1.11000000       1.11000000       1.11000000       1.11000000       1.11000000       1.11000000       1.11000000       1.11000000       1.11000000       1.11000000       1.11000000       1.11000000       1.11000000       1.11000000
         1.11000000       1.11000000       1.11000000       1.11000000       1.11000000       1.11000000       1.11000000       1.11000000       1.11000000       1.11000000       1.11000000       1.11000000       1.11000000       1.11000000       1.11000000       1.11000000       1.11000000       1.11000000       1.11000000       1.11000000
         1.11000000       1.11000000       1.11000000       1.11000000       1.11000000       1.11000000       1.11000000       1.11000000       1.11000000       1.11000000       1.11000000       1.11000000       1.11000000       1.11000000       1.11000000       1.11000000       1.11000000       1.11000000       1.11000000       1.11000000
         1.11000000       1.11000000       1.11000000       1.11000000       1.11000000       1.11000000       1.11000000       1.11000000       1.11000000       1.11000000       1.11000000       1.11000000       1.11000000       1.11000000       1.11000000       1.11000000       1.11000000       1.11000000       1.11000000       1.11000000
         1.11000000       1.11000000       1.11000000       1.11000000       1.11000000       1.11000000       1.11000000       1.11000000       1.11000000       1.11000000       1.11000000       1.11000000       1.11000000       1.11000000       1.11000000       1.11000000       1.11000000       1.11000000       1.11000000       1.11000000
         1.11000000       1.11000000       1.11000000       1.11000000       1.11000000       1.11000000       1.11000000       1.11000000       1.11000000       1.11000000       1.11000000       1.11000000       1.11000000       1.11000000       1.11000000       1.11000000       1.11000000       1.11000000       1.11000000       1.11000000
         1.11000000       1.11000000       1.11000000       1.11000000       1.11000000       1.11000000       1.11000000       1.11000000       1.11000000       1.11000000       1.11000000       1.11000000       1.11000000       1.11000000       1.11000000       1.11000000       1.11000000       1.11000000       1.11000000       1.11000000
         1.11000000       1.11000000       1.11000000       1.11000000       1.11000000       1.11000000       1.11000000       1.11000000       1.11000000       1.11000000       1.11000000       1.11000000       1.11000000       1.11000000       1.11000000       1.11000000       1.11000000       1.11000000       1.11000000       1.11000000
         1.11000000       1.11000000       1.11000000       1.11000000       1.11000000       1.11000000       1.11000000       1.11000000       1.11000000       1.11000000       1.11000000       1.11000000       1.11000000       1.11000000       1.11000000       1.11000000       1.11000000       1.11000000       1.11000000       1.11000000
         1.11000000       1.11000000       1.11000000       1.11000000       1.11000000       1.11000000       1.11000000       1.11000000       1.11000000       1.11000000       1.11000000       1.11000000       1.11000000       1.11000000       1.11000000       1.11000000       1.11000000       1.11000000       1.11000000       1.11000000
         1.11000000       1.11000000       1.11000000       1.11000000       1.11000000       1.11000000       1.11000000       1.11000000       1.11000000       1.11000000       1.11000000       1.11000000       1.11000000       1.11000000       1.11000000       1.11000000       1.11000000       1.11000000       1.11000000       1.11000000
         1.11000000       1.11000000       1.11000000       1.11000000       1.11000000       1.11000000       1.11000000       1.11000000       1.11000000       1.11000000       1.11000000       1.11000000       1.11000000       1.11000000       1.11000000       1.11000000       1.11000000       1.11000000       1.11000000       1.11000000
         1.11000000       1.11000000       1.11000000       1.11000000       1.11000000       1.11000000       1.11000000       1.11000000       1.11000000       1.11000000       1.11000000       1.11000000       1.11000000       1.11000000       1.11000000       1.11000000       1.11000000       1.11000000       1.11000000       1.11000000
         1.11000000       1.11000000       1.11000000       1.11000000       1.11000000       1.11000000       1.11000000       1.11000000       1.11000000       1.11000000       1.11000000       1.11000000       1.11000000       1.11000000       1.11000000       1.11000000       1.11000000       1.11000000       1.11000000       1.11000000
         1.11000000       1.11000000       1.11000000       1.11000000       1.11000000       1.11000000       1.11000000       1.11000000       1.11000000       1.11000000       1.11000000       1.11000000       1.11000000       1.11000000       1.11000000       1.11000000       1.11000000       1.11000000       1.11000000       1.11000000
         1.11000000       1.11000000       1.11000000       1.11000000       1.11000000       1.11000000       1.11000000       1.11000000       1.11000000       1.11000000       1.11000000       1.11000000       1.11000000       1.11000000       1.11000000       1.11000000       1.11000000       1.11000000       1.11000000       1.11000000
         1.11000000       1.11000000       1.11000000       1.11000000       1.11000000       1.11000000       1.11000000       1.11000000       1.11000000       1.11000000       1.11000000       1.11000000       1.11000000       1.11000000       1.11000000       1.11000000       1.11000000       1.11000000       1.11000000       1.11000000
         1.11000000       1.11000000       1.11000000       1.11000000       1.11000000       1.11000000       1.11000000       1.11000000       1.11000000       1.11000000       1.11000000       1.11000000       1.11000000       1.11000000       1.11000000       1.11000000       1.11000000       1.11000000       1.11000000       1.11000000
         1.11000000       1.11000000       1.11000000       1.11000000       1.11000000       1.11000000       1.11000000       1.11000000       1.11000000       1.11000000       1.11000000       1.11000000       1.11000000       1.11000000       1.11000000       1.11000000       1.11000000       1.11000000       1.11000000       1.11000000
         1.11000000       1.11000000       1.11000000       1.11000000       1.11000000       1.11000000       1.11000000       1.11000000       1.11000000       1.11000000       1.11000000       1.11000000       1.11000000       1.11000000       1.11000000       1.11000000       1.11000000       1.11000000       1.11000000       1.11000000
         1.11000000       1.11000000       1.11000000       1.11000000       1.11000000       1.11000000       1.11000000       1.11000000       1.11000000       1.11000000       1.11000000       1.11000000       1.11000000       1.11000000       1.11000000       1.11000000       1.11000000       1.11000000       1.11000000       1.11000000
         1.11000000       1.11000000       1.11000000       1.11000000       1.11000000       1.11000000       1.11000000       1.11000000       1.11000000       1.11000000       1.11000000       1.11000000       1.11000000       1.11000000       1.11000000       1.11000000       1.11000000       1.11000000       1.11000000       1.11000000