# File generated by Flopy version 3.8.2 on 06/10/2025 at 15:35:39.
BEGIN options
  PRINT_OPTION  summary
  COMPLEXITY  complex
END options

