# File generated by Flopy version 3.8.2 on 06/10/2025 at 15:35:39.
BEGIN Options
  CONTINUE
END Options

BEGIN TIMING
  TDIS6  freyberg6.tdis
END TIMING

BEGIN MODELS
  gwf6  freyberg6.nam  freyberg6
END MODELS

BEGIN EXCHANGES
END EXCHANGES

BEGIN SOLUTIONGROUP  1
  MXITER  1
  ims6  freyberg6.ims  freyberg6
END SOLUTIONGROUP  1

