# File generated by Flopy version 3.8.2 on 01/09/2025 at 07:31:18.
BEGIN options
  COMPLEXITY  moderate
END options

BEGIN nonlinear
  OUTER_DVCLOSE       0.00100000
END nonlinear

