# File generated by Flopy version 3.8.2 on 01/09/2025 at 07:31:18.
BEGIN options
  SAVE_FLOWS
END options

BEGIN packages
  DIS6  B_pleasant.dis  dis
END packages

