# File generated by Flopy version 3.9.1 on 06/21/2025 at 10:35:57.
BEGIN options
  PRINT_OPTION  summary
  COMPLEXITY  complex
  NO_PTC  ALL
END options

BEGIN nonlinear
  OUTER_DVCLOSE  1.00000000E-06
  OUTER_MAXIMUM  500
END nonlinear

BEGIN linear
  INNER_MAXIMUM  100
  INNER_DVCLOSE  1.00000000E-06
  inner_rclose    1000.00000000
END linear

