# File generated by Flopy version 3.9.1 on 06/21/2025 at 10:35:57.
BEGIN options
  HEAD  FILEOUT  08_p02.hds
END options

BEGIN period  1
  SAVE  HEAD  LAST
END period  1

