# File generated by Flopy version 3.8.2 on 01/20/2025 at 10:24:10.
BEGIN options
  BUDGET  FILEOUT  symp01.cbb
  HEAD  FILEOUT  symp01.hds
END options

BEGIN period  1
  SAVE  HEAD  ALL
  SAVE  BUDGET  ALL
  PRINT  HEAD  LAST
END period  1

