# Name file for MODFLOW-2005, generated by Flopy version 3.9.1.
#xll:0.0; yll:0.0; rotation:0.0; units:meters; lenuni:2; start_datetime:1-1-1970
LIST               2  p09_mf.list
DIS               11  p09_mf.dis
BAS6              13  p09_mf.bas
LPF               15  p09_mf.lpf
WEL               20  p09_mf.wel
PCG               27  p09_mf.pcg
LMT6              30  p09_mf.lmt6
