# File generated by Flopy version 3.10.0.dev3 on 06/15/2025 at 08:29:34.
BEGIN options
  auxiliary  depth
  AUXDEPTHNAME  depth
END options

BEGIN dimensions
  MAXBOUND  1919
END dimensions

BEGIN period  1
  1 2 23 9.53710175E+01 2.50000000E+06 1.00000000E+00
  1 2 24 9.45906067E+01 2.50000000E+06 1.00000000E+00
  1 3 16 1.00119522E+02 2.50000000E+06 1.00000000E+00
  1 3 17 9.96467667E+01 2.50000000E+06 1.00000000E+00
  1 3 18 9.90881271E+01 2.50000000E+06 1.00000000E+00
  1 3 19 9.86162796E+01 2.50000000E+06 1.00000000E+00
  1 3 20 9.79271908E+01 2.50000000E+06 1.00000000E+00
  1 3 21 9.71236706E+01 2.50000000E+06 1.00000000E+00
  1 3 22 9.63331718E+01 2.50000000E+06 1.00000000E+00
  1 3 23 9.54070396E+01 2.50000000E+06 1.00000000E+00
  1 3 24 9.43786774E+01 2.50000000E+06 1.00000000E+00
  1 3 25 9.30890770E+01 2.50000000E+06 1.00000000E+00
  1 3 26 9.15583439E+01 2.50000000E+06 1.00000000E+00
  1 3 27 9.01469669E+01 2.50000000E+06 1.00000000E+00
  1 3 28 8.84036026E+01 2.50000000E+06 1.00000000E+00
  1 3 29 8.65312500E+01 2.50000000E+06 1.00000000E+00
  1 4 13 1.00735939E+02 2.50000000E+06 1.00000000E+00
  1 4 14 1.00630081E+02 2.50000000E+06 1.00000000E+00
  1 4 15 1.00373621E+02 2.50000000E+06 1.00000000E+00
  1 4 16 1.00051670E+02 2.50000000E+06 1.00000000E+00
  1 4 17 9.96262455E+01 2.50000000E+06 1.00000000E+00
  1 4 18 9.90967255E+01 2.50000000E+06 1.00000000E+00
  1 4 19 9.84974766E+01 2.50000000E+06 1.00000000E+00
  1 4 20 9.77963276E+01 2.50000000E+06 1.00000000E+00
  1 4 21 9.70014458E+01 2.50000000E+06 1.00000000E+00
  1 4 22 9.61243343E+01 2.50000000E+06 1.00000000E+00
  1 4 23 9.51364880E+01 2.50000000E+06 1.00000000E+00
  1 4 24 9.40179920E+01 2.50000000E+06 1.00000000E+00
  1 4 25 9.27150860E+01 2.50000000E+06 1.00000000E+00
  1 4 26 9.12496262E+01 2.50000000E+06 1.00000000E+00
  1 4 27 8.96731987E+01 2.50000000E+06 1.00000000E+00
  1 4 28 8.78915634E+01 2.50000000E+06 1.00000000E+00
  1 4 29 8.59544067E+01 2.50000000E+06 1.00000000E+00
  1 4 30 8.37530479E+01 2.50000000E+06 1.00000000E+00
  1 4 31 8.15406284E+01 2.50000000E+06 1.00000000E+00
  1 4 32 7.95976334E+01 2.50000000E+06 1.00000000E+00
  1 4 33 7.57424469E+01 2.50000000E+06 1.00000000E+00
  1 5 11 1.00769859E+02 2.50000000E+06 1.00000000E+00
  1 5 12 1.00772095E+02 2.50000000E+06 1.00000000E+00
  1 5 13 1.00685001E+02 2.50000000E+06 1.00000000E+00
  1 5 14 1.00490543E+02 2.50000000E+06 1.00000000E+00
  1 5 15 1.00202631E+02 2.50000000E+06 1.00000000E+00
  1 5 16 9.98228722E+01 2.50000000E+06 1.00000000E+00
  1 5 17 9.93597507E+01 2.50000000E+06 1.00000000E+00
  1 5 18 9.88088131E+01 2.50000000E+06 1.00000000E+00
  1 5 19 9.81721802E+01 2.50000000E+06 1.00000000E+00
  1 5 20 9.74468136E+01 2.50000000E+06 1.00000000E+00
  1 5 21 9.66268730E+01 2.50000000E+06 1.00000000E+00
  1 5 22 9.57076397E+01 2.50000000E+06 1.00000000E+00
  1 5 23 9.46762962E+01 2.50000000E+06 1.00000000E+00
  1 5 24 9.35061893E+01 2.50000000E+06 1.00000000E+00
  1 5 25 9.21815739E+01 2.50000000E+06 1.00000000E+00
  1 5 26 9.06950798E+01 2.50000000E+06 1.00000000E+00
  1 5 27 8.90451336E+01 2.50000000E+06 1.00000000E+00
  1 5 28 8.72147427E+01 2.50000000E+06 1.00000000E+00
  1 5 29 8.51906261E+01 2.50000000E+06 1.00000000E+00
  1 5 30 8.29858093E+01 2.50000000E+06 1.00000000E+00
  1 5 31 8.06165619E+01 2.50000000E+06 1.00000000E+00
  1 5 32 7.81034508E+01 2.50000000E+06 1.00000000E+00
  1 5 33 7.55447254E+01 2.50000000E+06 1.00000000E+00
  1 5 34 7.30109997E+01 2.50000000E+06 1.00000000E+00
  1 5 35 7.09967594E+01 2.50000000E+06 1.00000000E+00
  1 5 36 6.92129669E+01 2.50000000E+06 1.00000000E+00
  1 5 37 6.77615128E+01 2.50000000E+06 1.00000000E+00
  1 5 38 6.72022934E+01 2.50000000E+06 1.00000000E+00
  1 5 39 6.66919403E+01 2.50000000E+06 1.00000000E+00
  1 5 40 6.65064545E+01 2.50000000E+06 1.00000000E+00
  1 6 10 1.00721428E+02 2.50000000E+06 1.00000000E+00
  1 6 11 1.00710999E+02 2.50000000E+06 1.00000000E+00
  1 6 12 1.00615755E+02 2.50000000E+06 1.00000000E+00
  1 6 13 1.00429625E+02 2.50000000E+06 1.00000000E+00
  1 6 14 1.00154814E+02 2.50000000E+06 1.00000000E+00
  1 6 15 9.98034611E+01 2.50000000E+06 1.00000000E+00
  1 6 16 9.93754692E+01 2.50000000E+06 1.00000000E+00
  1 6 17 9.88677425E+01 2.50000000E+06 1.00000000E+00
  1 6 18 9.82861881E+01 2.50000000E+06 1.00000000E+00
  1 6 19 9.76203537E+01 2.50000000E+06 1.00000000E+00
  1 6 20 9.68708801E+01 2.50000000E+06 1.00000000E+00
  1 6 21 9.60276985E+01 2.50000000E+06 1.00000000E+00
  1 6 22 9.50825996E+01 2.50000000E+06 1.00000000E+00
  1 6 23 9.40194454E+01 2.50000000E+06 1.00000000E+00
  1 6 24 9.28222599E+01 2.50000000E+06 1.00000000E+00
  1 6 25 9.14727478E+01 2.50000000E+06 1.00000000E+00
  1 6 26 8.99555321E+01 2.50000000E+06 1.00000000E+00
  1 6 27 8.82576847E+01 2.50000000E+06 1.00000000E+00
  1 6 28 8.63660183E+01 2.50000000E+06 1.00000000E+00
  1 6 29 8.42654438E+01 2.50000000E+06 1.00000000E+00
  1 6 30 8.19702320E+01 2.50000000E+06 1.00000000E+00
  1 6 31 7.94796772E+01 2.50000000E+06 1.00000000E+00
  1 6 32 7.68848534E+01 2.50000000E+06 1.00000000E+00
  1 6 33 7.43054905E+01 2.50000000E+06 1.00000000E+00
  1 6 34 7.19461441E+01 2.50000000E+06 1.00000000E+00
  1 6 35 7.00272560E+01 2.50000000E+06 1.00000000E+00
  1 6 36 6.85309391E+01 2.50000000E+06 1.00000000E+00
  1 6 37 6.75152168E+01 2.50000000E+06 1.00000000E+00
  1 6 38 6.68947144E+01 2.50000000E+06 1.00000000E+00
  1 6 39 6.65118599E+01 2.50000000E+06 1.00000000E+00
  1 6 40 6.62312737E+01 2.50000000E+06 1.00000000E+00
  1 6 41 6.59556351E+01 2.50000000E+06 1.00000000E+00
  1 6 42 6.57412491E+01 2.50000000E+06 1.00000000E+00
  1 6 43 6.53830948E+01 2.50000000E+06 1.00000000E+00
  1 6 44 6.52072525E+01 2.50000000E+06 1.00000000E+00
  1 6 45 6.46532822E+01 2.50000000E+06 1.00000000E+00
  1 7 9 1.00598457E+02 2.50000000E+06 1.00000000E+00
  1 7 10 1.00592537E+02 2.50000000E+06 1.00000000E+00
  1 7 11 1.00465588E+02 2.50000000E+06 1.00000000E+00
  1 7 12 1.00239506E+02 2.50000000E+06 1.00000000E+00
  1 7 13 9.99503117E+01 2.50000000E+06 1.00000000E+00
  1 7 14 9.95886021E+01 2.50000000E+06 1.00000000E+00
  1 7 15 9.91671314E+01 2.50000000E+06 1.00000000E+00
  1 7 16 9.86845207E+01 2.50000000E+06 1.00000000E+00
  1 7 17 9.81389675E+01 2.50000000E+06 1.00000000E+00
  1 7 18 9.75234394E+01 2.50000000E+06 1.00000000E+00
  1 7 19 9.68352242E+01 2.50000000E+06 1.00000000E+00
  1 7 20 9.60657425E+01 2.50000000E+06 1.00000000E+00
  1 7 21 9.52075443E+01 2.50000000E+06 1.00000000E+00
  1 7 22 9.42469215E+01 2.50000000E+06 1.00000000E+00
  1 7 23 9.31697216E+01 2.50000000E+06 1.00000000E+00
  1 7 24 9.19580021E+01 2.50000000E+06 1.00000000E+00
  1 7 25 9.05924606E+01 2.50000000E+06 1.00000000E+00
  1 7 26 8.90517559E+01 2.50000000E+06 1.00000000E+00
  1 7 27 8.73178806E+01 2.50000000E+06 1.00000000E+00
  1 7 28 8.53687935E+01 2.50000000E+06 1.00000000E+00
  1 7 29 8.31819992E+01 2.50000000E+06 1.00000000E+00
  1 7 30 8.07548332E+01 2.50000000E+06 1.00000000E+00
  1 7 31 7.80971050E+01 2.50000000E+06 1.00000000E+00
  1 7 32 7.52619419E+01 2.50000000E+06 1.00000000E+00
  1 7 33 7.24364510E+01 2.50000000E+06 1.00000000E+00
  1 7 34 6.99775677E+01 2.50000000E+06 1.00000000E+00
  1 7 35 6.81818829E+01 2.50000000E+06 1.00000000E+00
  1 7 36 6.70761929E+01 2.50000000E+06 1.00000000E+00
  1 7 37 6.63829346E+01 2.50000000E+06 1.00000000E+00
  1 7 38 6.60307293E+01 2.50000000E+06 1.00000000E+00
  1 7 39 6.58143654E+01 2.50000000E+06 1.00000000E+00
  1 7 40 6.56693115E+01 2.50000000E+06 1.00000000E+00
  1 7 41 6.55249100E+01 2.50000000E+06 1.00000000E+00
  1 7 42 6.53608418E+01 2.50000000E+06 1.00000000E+00
  1 7 43 6.51403656E+01 2.50000000E+06 1.00000000E+00
  1 7 44 6.48560352E+01 2.50000000E+06 1.00000000E+00
  1 7 45 6.44937096E+01 2.50000000E+06 1.00000000E+00
  1 7 46 6.41509781E+01 2.50000000E+06 1.00000000E+00
  1 7 47 6.33368416E+01 2.50000000E+06 1.00000000E+00
  1 8 8 1.00617439E+02 2.50000000E+06 1.00000000E+00
  1 8 9 1.00521076E+02 2.50000000E+06 1.00000000E+00
  1 8 10 1.00314905E+02 2.50000000E+06 1.00000000E+00
  1 8 11 9.99996128E+01 2.50000000E+06 1.00000000E+00
  1 8 12 9.96265163E+01 2.50000000E+06 1.00000000E+00
  1 8 13 9.92170601E+01 2.50000000E+06 1.00000000E+00
  1 8 14 9.87692738E+01 2.50000000E+06 1.00000000E+00
  1 8 15 9.82764206E+01 2.50000000E+06 1.00000000E+00
  1 8 16 9.77454739E+01 2.50000000E+06 1.00000000E+00
  1 8 17 9.71577148E+01 2.50000000E+06 1.00000000E+00
  1 8 18 9.65158501E+01 2.50000000E+06 1.00000000E+00
  1 8 19 9.58070202E+01 2.50000000E+06 1.00000000E+00
  1 8 20 9.50253773E+01 2.50000000E+06 1.00000000E+00
  1 8 21 9.41598034E+01 2.50000000E+06 1.00000000E+00
  1 8 22 9.31969070E+01 2.50000000E+06 1.00000000E+00
  1 8 23 9.21204166E+01 2.50000000E+06 1.00000000E+00
  1 8 24 9.09098568E+01 2.50000000E+06 1.00000000E+00
  1 8 25 8.95434513E+01 2.50000000E+06 1.00000000E+00
  1 8 26 8.79957066E+01 2.50000000E+06 1.00000000E+00
  1 8 27 8.62377701E+01 2.50000000E+06 1.00000000E+00
  1 8 28 8.42432175E+01 2.50000000E+06 1.00000000E+00
  1 8 29 8.19677925E+01 2.50000000E+06 1.00000000E+00
  1 8 30 7.93978844E+01 2.50000000E+06 1.00000000E+00
  1 8 31 7.64771595E+01 2.50000000E+06 1.00000000E+00
  1 8 32 7.32437172E+01 2.50000000E+06 1.00000000E+00
  1 8 33 6.97681007E+01 2.50000000E+06 1.00000000E+00
  1 8 34 6.68461170E+01 2.50000000E+06 1.00000000E+00
  1 8 35 6.52621422E+01 2.50000000E+06 1.00000000E+00
  1 8 36 6.47063770E+01 2.50000000E+06 1.00000000E+00
  1 8 37 6.46112976E+01 2.50000000E+06 1.00000000E+00
  1 8 38 6.46009808E+01 2.50000000E+06 1.00000000E+00
  1 8 39 6.46708965E+01 2.50000000E+06 1.00000000E+00
  1 8 40 6.47254009E+01 2.50000000E+06 1.00000000E+00
  1 8 41 6.47334404E+01 2.50000000E+06 1.00000000E+00
  1 8 42 6.46723995E+01 2.50000000E+06 1.00000000E+00
  1 8 43 6.45350418E+01 2.50000000E+06 1.00000000E+00
  1 8 44 6.43112278E+01 2.50000000E+06 1.00000000E+00
  1 8 45 6.39934177E+01 2.50000000E+06 1.00000000E+00
  1 8 46 6.35601463E+01 2.50000000E+06 1.00000000E+00
  1 8 47 6.30440416E+01 2.50000000E+06 1.00000000E+00
  1 8 48 6.24386826E+01 2.50000000E+06 1.00000000E+00
  1 8 49 6.16563797E+01 2.50000000E+06 1.00000000E+00
  1 8 50 6.08682327E+01 2.50000000E+06 1.00000000E+00
  1 9 7 1.01098328E+02 2.50000000E+06 1.00000000E+00
  1 9 8 1.00669603E+02 2.50000000E+06 1.00000000E+00
  1 9 9 1.00273310E+02 2.50000000E+06 1.00000000E+00
  1 9 10 9.97982750E+01 2.50000000E+06 1.00000000E+00
  1 9 11 9.92710552E+01 2.50000000E+06 1.00000000E+00
  1 9 12 9.87344818E+01 2.50000000E+06 1.00000000E+00
  1 9 13 9.82035294E+01 2.50000000E+06 1.00000000E+00
  1 9 14 9.76673489E+01 2.50000000E+06 1.00000000E+00
  1 9 15 9.71148396E+01 2.50000000E+06 1.00000000E+00
  1 9 16 9.65307941E+01 2.50000000E+06 1.00000000E+00
  1 9 17 9.59128571E+01 2.50000000E+06 1.00000000E+00
  1 9 18 9.52455425E+01 2.50000000E+06 1.00000000E+00
  1 9 19 9.45238400E+01 2.50000000E+06 1.00000000E+00
  1 9 20 9.37385654E+01 2.50000000E+06 1.00000000E+00
  1 9 21 9.28769760E+01 2.50000000E+06 1.00000000E+00
  1 9 22 9.19272747E+01 2.50000000E+06 1.00000000E+00
  1 9 23 9.08663044E+01 2.50000000E+06 1.00000000E+00
  1 9 24 8.96767578E+01 2.50000000E+06 1.00000000E+00
  1 9 25 8.83290501E+01 2.50000000E+06 1.00000000E+00
  1 9 26 8.67963181E+01 2.50000000E+06 1.00000000E+00
  1 9 27 8.50387878E+01 2.50000000E+06 1.00000000E+00
  1 9 28 8.30189743E+01 2.50000000E+06 1.00000000E+00
  1 9 29 8.06885529E+01 2.50000000E+06 1.00000000E+00
  1 9 30 7.79763527E+01 2.50000000E+06 1.00000000E+00
  1 9 31 7.47861500E+01 2.50000000E+06 1.00000000E+00
  1 9 32 7.09509773E+01 2.50000000E+06 1.00000000E+00
  1 9 33 6.63915844E+01 2.50000000E+06 1.00000000E+00
  1 9 34 6.14369125E+01 2.50000000E+06 1.00000000E+00
  1 9 35 6.09311953E+01 2.50000000E+06 1.00000000E+00
  1 9 36 6.16165714E+01 2.50000000E+06 1.00000000E+00
  1 9 37 6.22666655E+01 2.50000000E+06 1.00000000E+00
  1 9 38 6.27636938E+01 2.50000000E+06 1.00000000E+00
  1 9 39 6.31648951E+01 2.50000000E+06 1.00000000E+00
  1 9 40 6.34501486E+01 2.50000000E+06 1.00000000E+00
  1 9 41 6.36171780E+01 2.50000000E+06 1.00000000E+00
  1 9 42 6.36811275E+01 2.50000000E+06 1.00000000E+00
  1 9 43 6.36310215E+01 2.50000000E+06 1.00000000E+00
  1 9 44 6.34857359E+01 2.50000000E+06 1.00000000E+00
  1 9 45 6.32269964E+01 2.50000000E+06 1.00000000E+00
  1 9 46 6.28689194E+01 2.50000000E+06 1.00000000E+00
  1 9 47 6.24099436E+01 2.50000000E+06 1.00000000E+00
  1 9 48 6.18487787E+01 2.50000000E+06 1.00000000E+00
  1 9 49 6.11983624E+01 2.50000000E+06 1.00000000E+00
  1 9 50 6.04310904E+01 2.50000000E+06 1.00000000E+00
  1 9 51 5.96660814E+01 2.50000000E+06 1.00000000E+00
  1 9 52 5.88073463E+01 2.50000000E+06 1.00000000E+00
  1 10 5 1.02266701E+02 2.50000000E+06 1.00000000E+00
  1 10 6 1.01847267E+02 2.50000000E+06 1.00000000E+00
  1 10 7 1.01180140E+02 2.50000000E+06 1.00000000E+00
  1 10 8 1.00522022E+02 2.50000000E+06 1.00000000E+00
  1 10 9 9.97810230E+01 2.50000000E+06 1.00000000E+00
  1 10 10 9.90199261E+01 2.50000000E+06 1.00000000E+00
  1 10 11 9.82438812E+01 2.50000000E+06 1.00000000E+00
  1 10 12 9.75313988E+01 2.50000000E+06 1.00000000E+00
  1 10 13 9.68747253E+01 2.50000000E+06 1.00000000E+00
  1 10 14 9.62594833E+01 2.50000000E+06 1.00000000E+00
  1 10 15 9.56496468E+01 2.50000000E+06 1.00000000E+00
  1 10 16 9.50314465E+01 2.50000000E+06 1.00000000E+00
  1 10 17 9.43833065E+01 2.50000000E+06 1.00000000E+00
  1 10 18 9.36992321E+01 2.50000000E+06 1.00000000E+00
  1 10 19 9.29717865E+01 2.50000000E+06 1.00000000E+00
  1 10 20 9.21918316E+01 2.50000000E+06 1.00000000E+00
  1 10 21 9.13475151E+01 2.50000000E+06 1.00000000E+00
  1 10 22 9.04234123E+01 2.50000000E+06 1.00000000E+00
  1 10 23 8.94037762E+01 2.50000000E+06 1.00000000E+00
  1 10 24 8.82535915E+01 2.50000000E+06 1.00000000E+00
  1 10 25 8.69552612E+01 2.50000000E+06 1.00000000E+00
  1 10 26 8.54620743E+01 2.50000000E+06 1.00000000E+00
  1 10 27 8.37400684E+01 2.50000000E+06 1.00000000E+00
  1 10 28 8.17361526E+01 2.50000000E+06 1.00000000E+00
  1 10 29 7.93916664E+01 2.50000000E+06 1.00000000E+00
  1 10 30 7.66202545E+01 2.50000000E+06 1.00000000E+00
  1 10 31 7.32770844E+01 2.50000000E+06 1.00000000E+00
  1 10 32 6.91139641E+01 2.50000000E+06 1.00000000E+00
  1 10 33 6.34484425E+01 2.50000000E+06 1.00000000E+00
  1 10 35 5.59566841E+01 2.50000000E+06 1.00000000E+00
  1 10 36 5.82107468E+01 2.50000000E+06 1.00000000E+00
  1 10 37 5.96421995E+01 2.50000000E+06 1.00000000E+00
  1 10 38 6.06169834E+01 2.50000000E+06 1.00000000E+00
  1 10 39 6.13608141E+01 2.50000000E+06 1.00000000E+00
  1 10 40 6.18850260E+01 2.50000000E+06 1.00000000E+00
  1 10 41 6.22253428E+01 2.50000000E+06 1.00000000E+00
  1 10 42 6.24006643E+01 2.50000000E+06 1.00000000E+00
  1 10 43 6.24517527E+01 2.50000000E+06 1.00000000E+00
  1 10 44 6.23705473E+01 2.50000000E+06 1.00000000E+00
  1 10 45 6.21821136E+01 2.50000000E+06 1.00000000E+00
  1 10 46 6.18858347E+01 2.50000000E+06 1.00000000E+00
  1 10 47 6.14958115E+01 2.50000000E+06 1.00000000E+00
  1 10 48 6.10067215E+01 2.50000000E+06 1.00000000E+00
  1 10 49 6.04318647E+01 2.50000000E+06 1.00000000E+00
  1 10 50 5.97614412E+01 2.50000000E+06 1.00000000E+00
  1 10 51 5.90279636E+01 2.50000000E+06 1.00000000E+00
  1 10 52 5.81980963E+01 2.50000000E+06 1.00000000E+00
  1 10 53 5.73611565E+01 2.50000000E+06 1.00000000E+00
  1 10 54 5.57793198E+01 2.50000000E+06 1.00000000E+00
  1 11 4 1.02852043E+02 2.50000000E+06 1.00000000E+00
  1 11 5 1.02459557E+02 2.50000000E+06 1.00000000E+00
  1 11 6 1.01876072E+02 2.50000000E+06 1.00000000E+00
  1 11 7 1.01095842E+02 2.50000000E+06 1.00000000E+00
  1 11 8 1.00142771E+02 2.50000000E+06 1.00000000E+00
  1 11 9 9.90557976E+01 2.50000000E+06 1.00000000E+00
  1 11 10 9.78819599E+01 2.50000000E+06 1.00000000E+00
  1 11 11 9.68321323E+01 2.50000000E+06 1.00000000E+00
  1 11 12 9.59241428E+01 2.50000000E+06 1.00000000E+00
  1 11 13 9.51750507E+01 2.50000000E+06 1.00000000E+00
  1 11 14 9.45102119E+01 2.50000000E+06 1.00000000E+00
  1 11 15 9.38696728E+01 2.50000000E+06 1.00000000E+00
  1 11 16 9.32218800E+01 2.50000000E+06 1.00000000E+00
  1 11 17 9.25544987E+01 2.50000000E+06 1.00000000E+00
  1 11 18 9.18585644E+01 2.50000000E+06 1.00000000E+00
  1 11 19 9.11314163E+01 2.50000000E+06 1.00000000E+00
  1 11 20 9.03663654E+01 2.50000000E+06 1.00000000E+00
  1 11 21 8.95519295E+01 2.50000000E+06 1.00000000E+00
  1 11 22 8.86782761E+01 2.50000000E+06 1.00000000E+00
  1 11 23 8.77146263E+01 2.50000000E+06 1.00000000E+00
  1 11 24 8.66402550E+01 2.50000000E+06 1.00000000E+00
  1 11 25 8.54134178E+01 2.50000000E+06 1.00000000E+00
  1 11 26 8.40014534E+01 2.50000000E+06 1.00000000E+00
  1 11 27 8.23512230E+01 2.50000000E+06 1.00000000E+00
  1 11 28 8.04179096E+01 2.50000000E+06 1.00000000E+00
  1 11 29 7.81254787E+01 2.50000000E+06 1.00000000E+00
  1 11 30 7.54087620E+01 2.50000000E+06 1.00000000E+00
  1 11 31 7.21208496E+01 2.50000000E+06 1.00000000E+00
  1 11 32 6.80687771E+01 2.50000000E+06 1.00000000E+00
  1 11 33 6.29647694E+01 2.50000000E+06 1.00000000E+00
  1 11 36 5.50808344E+01 2.50000000E+06 1.00000000E+00
  1 11 37 5.69079428E+01 2.50000000E+06 1.00000000E+00
  1 11 38 5.83258076E+01 2.50000000E+06 1.00000000E+00
  1 11 39 5.93726320E+01 2.50000000E+06 1.00000000E+00
  1 11 40 6.00989037E+01 2.50000000E+06 1.00000000E+00
  1 11 41 6.05847330E+01 2.50000000E+06 1.00000000E+00
  1 11 42 6.08691893E+01 2.50000000E+06 1.00000000E+00
  1 11 43 6.09946032E+01 2.50000000E+06 1.00000000E+00
  1 11 44 6.09805927E+01 2.50000000E+06 1.00000000E+00
  1 11 45 6.08476305E+01 2.50000000E+06 1.00000000E+00
  1 11 46 6.06112108E+01 2.50000000E+06 1.00000000E+00
  1 11 47 6.02774315E+01 2.50000000E+06 1.00000000E+00
  1 11 48 5.98586636E+01 2.50000000E+06 1.00000000E+00
  1 11 49 5.93580084E+01 2.50000000E+06 1.00000000E+00
  1 11 50 5.87775383E+01 2.50000000E+06 1.00000000E+00
  1 11 51 5.81129856E+01 2.50000000E+06 1.00000000E+00
  1 11 52 5.73539209E+01 2.50000000E+06 1.00000000E+00
  1 11 53 5.64493914E+01 2.50000000E+06 1.00000000E+00
  1 11 54 5.53969727E+01 2.50000000E+06 1.00000000E+00
  1 11 55 5.41986656E+01 2.50000000E+06 1.00000000E+00
  1 11 56 5.31945419E+01 2.50000000E+06 1.00000000E+00
  1 11 57 5.24207964E+01 2.50000000E+06 1.00000000E+00
  1 11 58 5.12675705E+01 2.50000000E+06 1.00000000E+00
  1 11 59 5.07043724E+01 2.50000000E+06 1.00000000E+00
  1 12 4 1.03151304E+02 2.50000000E+06 1.00000000E+00
  1 12 5 1.02679701E+02 2.50000000E+06 1.00000000E+00
  1 12 6 1.01915152E+02 2.50000000E+06 1.00000000E+00
  1 12 7 1.00888346E+02 2.50000000E+06 1.00000000E+00
  1 12 8 9.95960236E+01 2.50000000E+06 1.00000000E+00
  1 12 9 9.80179291E+01 2.50000000E+06 1.00000000E+00
  1 12 10 9.63825111E+01 2.50000000E+06 1.00000000E+00
  1 12 11 9.48719311E+01 2.50000000E+06 1.00000000E+00
  1 12 12 9.38230114E+01 2.50000000E+06 1.00000000E+00
  1 12 13 9.30597000E+01 2.50000000E+06 1.00000000E+00
  1 12 14 9.24009838E+01 2.50000000E+06 1.00000000E+00
  1 12 15 9.17564106E+01 2.50000000E+06 1.00000000E+00
  1 12 16 9.10927696E+01 2.50000000E+06 1.00000000E+00
  1 12 17 9.04061890E+01 2.50000000E+06 1.00000000E+00
  1 12 18 8.97021465E+01 2.50000000E+06 1.00000000E+00
  1 12 19 8.89812622E+01 2.50000000E+06 1.00000000E+00
  1 12 20 8.82399120E+01 2.50000000E+06 1.00000000E+00
  1 12 21 8.74724007E+01 2.50000000E+06 1.00000000E+00
  1 12 22 8.66571922E+01 2.50000000E+06 1.00000000E+00
  1 12 23 8.57835541E+01 2.50000000E+06 1.00000000E+00
  1 12 24 8.48080215E+01 2.50000000E+06 1.00000000E+00
  1 12 25 8.37050228E+01 2.50000000E+06 1.00000000E+00
  1 12 26 8.24073639E+01 2.50000000E+06 1.00000000E+00
  1 12 27 8.08767986E+01 2.50000000E+06 1.00000000E+00
  1 12 28 7.90602360E+01 2.50000000E+06 1.00000000E+00
  1 12 29 7.69053116E+01 2.50000000E+06 1.00000000E+00
  1 12 30 7.43280544E+01 2.50000000E+06 1.00000000E+00
  1 12 31 7.12727528E+01 2.50000000E+06 1.00000000E+00
  1 12 32 6.75819607E+01 2.50000000E+06 1.00000000E+00
  1 12 33 6.33103008E+01 2.50000000E+06 1.00000000E+00
  1 12 34 5.84478493E+01 2.50000000E+06 1.00000000E+00
  1 12 37 5.41722736E+01 2.50000000E+06 1.00000000E+00
  1 12 38 5.59753256E+01 2.50000000E+06 1.00000000E+00
  1 12 39 5.72641897E+01 2.50000000E+06 1.00000000E+00
  1 12 40 5.81503515E+01 2.50000000E+06 1.00000000E+00
  1 12 41 5.87367945E+01 2.50000000E+06 1.00000000E+00
  1 12 42 5.90937777E+01 2.50000000E+06 1.00000000E+00
  1 12 43 5.92742634E+01 2.50000000E+06 1.00000000E+00
  1 12 44 5.93063402E+01 2.50000000E+06 1.00000000E+00
  1 12 45 5.92200842E+01 2.50000000E+06 1.00000000E+00
  1 12 46 5.90290642E+01 2.50000000E+06 1.00000000E+00
  1 12 47 5.87508936E+01 2.50000000E+06 1.00000000E+00
  1 12 48 5.83944464E+01 2.50000000E+06 1.00000000E+00
  1 12 49 5.79628305E+01 2.50000000E+06 1.00000000E+00
  1 12 50 5.74596462E+01 2.50000000E+06 1.00000000E+00
  1 12 51 5.68847218E+01 2.50000000E+06 1.00000000E+00
  1 12 52 5.62183514E+01 2.50000000E+06 1.00000000E+00
  1 12 53 5.54524183E+01 2.50000000E+06 1.00000000E+00
  1 12 54 5.45871811E+01 2.50000000E+06 1.00000000E+00
  1 12 55 5.36518688E+01 2.50000000E+06 1.00000000E+00
  1 12 56 5.27357826E+01 2.50000000E+06 1.00000000E+00
  1 12 57 5.18273249E+01 2.50000000E+06 1.00000000E+00
  1 12 58 5.08664026E+01 2.50000000E+06 1.00000000E+00
  1 12 59 4.98828325E+01 2.50000000E+06 1.00000000E+00
  1 12 60 4.87934074E+01 2.50000000E+06 1.00000000E+00
  1 12 61 4.72194633E+01 2.50000000E+06 1.00000000E+00
  1 13 3 1.03844902E+02 2.50000000E+06 1.00000000E+00
  1 13 4 1.03496025E+02 2.50000000E+06 1.00000000E+00
  1 13 5 1.02858257E+02 2.50000000E+06 1.00000000E+00
  1 13 6 1.01914019E+02 2.50000000E+06 1.00000000E+00
  1 13 7 1.00631229E+02 2.50000000E+06 1.00000000E+00
  1 13 8 9.89553909E+01 2.50000000E+06 1.00000000E+00
  1 13 9 9.68735218E+01 2.50000000E+06 1.00000000E+00
  1 13 10 9.42478790E+01 2.50000000E+06 1.00000000E+00
  1 13 11 9.20869064E+01 2.50000000E+06 1.00000000E+00
  1 13 12 9.10915718E+01 2.50000000E+06 1.00000000E+00
  1 13 13 9.04996452E+01 2.50000000E+06 1.00000000E+00
  1 13 14 8.99349613E+01 2.50000000E+06 1.00000000E+00
  1 13 15 8.93132153E+01 2.50000000E+06 1.00000000E+00
  1 13 16 8.86329308E+01 2.50000000E+06 1.00000000E+00
  1 13 17 8.79213505E+01 2.50000000E+06 1.00000000E+00
  1 13 18 8.72034531E+01 2.50000000E+06 1.00000000E+00
  1 13 19 8.64892120E+01 2.50000000E+06 1.00000000E+00
  1 13 20 8.57798996E+01 2.50000000E+06 1.00000000E+00
  1 13 21 8.50647373E+01 2.50000000E+06 1.00000000E+00
  1 13 22 8.43440266E+01 2.50000000E+06 1.00000000E+00
  1 13 23 8.35916042E+01 2.50000000E+06 1.00000000E+00
  1 13 24 8.27598000E+01 2.50000000E+06 1.00000000E+00
  1 13 25 8.18116531E+01 2.50000000E+06 1.00000000E+00
  1 13 26 8.06857090E+01 2.50000000E+06 1.00000000E+00
  1 13 27 7.93218594E+01 2.50000000E+06 1.00000000E+00
  1 13 28 7.76769676E+01 2.50000000E+06 1.00000000E+00
  1 13 29 7.57102165E+01 2.50000000E+06 1.00000000E+00
  1 13 30 7.33646984E+01 2.50000000E+06 1.00000000E+00
  1 13 31 7.05662899E+01 2.50000000E+06 1.00000000E+00
  1 13 32 6.73499813E+01 2.50000000E+06 1.00000000E+00
  1 13 33 6.36532087E+01 2.50000000E+06 1.00000000E+00
  1 13 34 5.96241999E+01 2.50000000E+06 1.00000000E+00
  1 13 35 5.55408459E+01 2.50000000E+06 1.00000000E+00
  1 13 38 5.37283688E+01 2.50000000E+06 1.00000000E+00
  1 13 39 5.51249228E+01 2.50000000E+06 1.00000000E+00
  1 13 40 5.60708733E+01 2.50000000E+06 1.00000000E+00
  1 13 41 5.66933155E+01 2.50000000E+06 1.00000000E+00
  1 13 42 5.70799227E+01 2.50000000E+06 1.00000000E+00
  1 13 43 5.72846031E+01 2.50000000E+06 1.00000000E+00
  1 13 44 5.73436985E+01 2.50000000E+06 1.00000000E+00
  1 13 45 5.72843828E+01 2.50000000E+06 1.00000000E+00
  1 13 46 5.71285334E+01 2.50000000E+06 1.00000000E+00
  1 13 47 5.68905420E+01 2.50000000E+06 1.00000000E+00
  1 13 48 5.65919828E+01 2.50000000E+06 1.00000000E+00
  1 13 49 5.62279215E+01 2.50000000E+06 1.00000000E+00
  1 13 50 5.58124399E+01 2.50000000E+06 1.00000000E+00
  1 13 51 5.53311529E+01 2.50000000E+06 1.00000000E+00
  1 13 52 5.47871037E+01 2.50000000E+06 1.00000000E+00
  1 13 53 5.41462135E+01 2.50000000E+06 1.00000000E+00
  1 13 54 5.34354057E+01 2.50000000E+06 1.00000000E+00
  1 13 55 5.26595583E+01 2.50000000E+06 1.00000000E+00
  1 13 56 5.18384933E+01 2.50000000E+06 1.00000000E+00
  1 13 57 5.09696407E+01 2.50000000E+06 1.00000000E+00
  1 13 58 5.00484934E+01 2.50000000E+06 1.00000000E+00
  1 13 59 4.90551462E+01 2.50000000E+06 1.00000000E+00
  1 13 60 4.79664307E+01 2.50000000E+06 1.00000000E+00
  1 13 61 4.68215542E+01 2.50000000E+06 1.00000000E+00
  1 13 62 4.53474541E+01 2.50000000E+06 1.00000000E+00
  1 14 3 1.04217833E+02 2.50000000E+06 1.00000000E+00
  1 14 4 1.03771866E+02 2.50000000E+06 1.00000000E+00
  1 14 5 1.03014132E+02 2.50000000E+06 1.00000000E+00
  1 14 6 1.01927078E+02 2.50000000E+06 1.00000000E+00
  1 14 7 1.00454706E+02 2.50000000E+06 1.00000000E+00
  1 14 8 9.85007286E+01 2.50000000E+06 1.00000000E+00
  1 14 9 9.58033981E+01 2.50000000E+06 1.00000000E+00
  1 14 10 9.19392929E+01 2.50000000E+06 1.00000000E+00
  1 14 12 8.76352539E+01 2.50000000E+06 1.00000000E+00
  1 14 13 8.75877876E+01 2.50000000E+06 1.00000000E+00
  1 14 14 8.71728058E+01 2.50000000E+06 1.00000000E+00
  1 14 15 8.65654602E+01 2.50000000E+06 1.00000000E+00
  1 14 16 8.58344707E+01 2.50000000E+06 1.00000000E+00
  1 14 17 8.50632763E+01 2.50000000E+06 1.00000000E+00
  1 14 18 8.43286095E+01 2.50000000E+06 1.00000000E+00
  1 14 19 8.36233120E+01 2.50000000E+06 1.00000000E+00
  1 14 20 8.29405899E+01 2.50000000E+06 1.00000000E+00
  1 14 21 8.23015881E+01 2.50000000E+06 1.00000000E+00
  1 14 22 8.16908722E+01 2.50000000E+06 1.00000000E+00
  1 14 23 8.10936852E+01 2.50000000E+06 1.00000000E+00
  1 14 24 8.04582291E+01 2.50000000E+06 1.00000000E+00
  1 14 25 7.97346802E+01 2.50000000E+06 1.00000000E+00
  1 14 26 7.88072891E+01 2.50000000E+06 1.00000000E+00
  1 14 27 7.76765118E+01 2.50000000E+06 1.00000000E+00
  1 14 28 7.62382774E+01 2.50000000E+06 1.00000000E+00
  1 14 29 7.45000954E+01 2.50000000E+06 1.00000000E+00
  1 14 30 7.23997879E+01 2.50000000E+06 1.00000000E+00
  1 14 31 6.99502201E+01 2.50000000E+06 1.00000000E+00
  1 14 32 6.70965958E+01 2.50000000E+06 1.00000000E+00
  1 14 33 6.38873568E+01 2.50000000E+06 1.00000000E+00
  1 14 34 6.03973122E+01 2.50000000E+06 1.00000000E+00
  1 14 35 5.67390480E+01 2.50000000E+06 1.00000000E+00
  1 14 36 5.29169140E+01 2.50000000E+06 1.00000000E+00
  1 14 38 5.16437731E+01 2.50000000E+06 1.00000000E+00
  1 14 39 5.29876499E+01 2.50000000E+06 1.00000000E+00
  1 14 40 5.38770771E+01 2.50000000E+06 1.00000000E+00
  1 14 41 5.44578667E+01 2.50000000E+06 1.00000000E+00
  1 14 42 5.48205509E+01 2.50000000E+06 1.00000000E+00
  1 14 43 5.50171022E+01 2.50000000E+06 1.00000000E+00
  1 14 44 5.50755157E+01 2.50000000E+06 1.00000000E+00
  1 14 45 5.50219975E+01 2.50000000E+06 1.00000000E+00
  1 14 46 5.48812189E+01 2.50000000E+06 1.00000000E+00
  1 14 47 5.46747780E+01 2.50000000E+06 1.00000000E+00
  1 14 48 5.44200497E+01 2.50000000E+06 1.00000000E+00
  1 14 49 5.41338348E+01 2.50000000E+06 1.00000000E+00
  1 14 50 5.38062048E+01 2.50000000E+06 1.00000000E+00
  1 14 51 5.34387474E+01 2.50000000E+06 1.00000000E+00
  1 14 52 5.30092058E+01 2.50000000E+06 1.00000000E+00
  1 14 53 5.25088053E+01 2.50000000E+06 1.00000000E+00
  1 14 54 5.19308167E+01 2.50000000E+06 1.00000000E+00
  1 14 55 5.12806292E+01 2.50000000E+06 1.00000000E+00
  1 14 56 5.05523863E+01 2.50000000E+06 1.00000000E+00
  1 14 57 4.97515755E+01 2.50000000E+06 1.00000000E+00
  1 14 58 4.88663330E+01 2.50000000E+06 1.00000000E+00
  1 14 59 4.78895845E+01 2.50000000E+06 1.00000000E+00
  1 14 60 4.68070726E+01 2.50000000E+06 1.00000000E+00
  1 14 61 4.56015081E+01 2.50000000E+06 1.00000000E+00
  1 14 62 4.41595736E+01 2.50000000E+06 1.00000000E+00
  1 14 63 4.24479675E+01 2.50000000E+06 1.00000000E+00
  1 15 2 1.04792526E+02 2.50000000E+06 1.00000000E+00
  1 15 3 1.04571669E+02 2.50000000E+06 1.00000000E+00
  1 15 4 1.04040125E+02 2.50000000E+06 1.00000000E+00
  1 15 5 1.03200357E+02 2.50000000E+06 1.00000000E+00
  1 15 6 1.02014851E+02 2.50000000E+06 1.00000000E+00
  1 15 7 1.00431377E+02 2.50000000E+06 1.00000000E+00
  1 15 8 9.83526897E+01 2.50000000E+06 1.00000000E+00
  1 15 9 9.55693245E+01 2.50000000E+06 1.00000000E+00
  1 15 10 9.17538891E+01 2.50000000E+06 1.00000000E+00
  1 15 13 8.47390060E+01 2.50000000E+06 1.00000000E+00
  1 15 14 8.41777649E+01 2.50000000E+06 1.00000000E+00
  1 15 15 8.35739651E+01 2.50000000E+06 1.00000000E+00
  1 15 16 8.26943016E+01 2.50000000E+06 1.00000000E+00
  1 15 17 8.17786903E+01 2.50000000E+06 1.00000000E+00
  1 15 18 8.10407715E+01 2.50000000E+06 1.00000000E+00
  1 15 19 8.03431110E+01 2.50000000E+06 1.00000000E+00
  1 15 20 7.96708450E+01 2.50000000E+06 1.00000000E+00
  1 15 21 7.91071663E+01 2.50000000E+06 1.00000000E+00
  1 15 22 7.86204529E+01 2.50000000E+06 1.00000000E+00
  1 15 23 7.82421513E+01 2.50000000E+06 1.00000000E+00
  1 15 24 7.79090061E+01 2.50000000E+06 1.00000000E+00
  1 15 25 7.74493694E+01 2.50000000E+06 1.00000000E+00
  1 15 26 7.68171043E+01 2.50000000E+06 1.00000000E+00
  1 15 27 7.59163151E+01 2.50000000E+06 1.00000000E+00
  1 15 28 7.47608471E+01 2.50000000E+06 1.00000000E+00
  1 15 29 7.32674007E+01 2.50000000E+06 1.00000000E+00
  1 15 30 7.14396534E+01 2.50000000E+06 1.00000000E+00
  1 15 31 6.92701969E+01 2.50000000E+06 1.00000000E+00
  1 15 32 6.67790813E+01 2.50000000E+06 1.00000000E+00
  1 15 33 6.39651585E+01 2.50000000E+06 1.00000000E+00
  1 15 34 6.09102812E+01 2.50000000E+06 1.00000000E+00
  1 15 35 5.75919294E+01 2.50000000E+06 1.00000000E+00
  1 15 36 5.40333891E+01 2.50000000E+06 1.00000000E+00
  1 15 39 5.08613224E+01 2.50000000E+06 1.00000000E+00
  1 15 40 5.15453825E+01 2.50000000E+06 1.00000000E+00
  1 15 41 5.19906664E+01 2.50000000E+06 1.00000000E+00
  1 15 42 5.22868824E+01 2.50000000E+06 1.00000000E+00
  1 15 43 5.24482908E+01 2.50000000E+06 1.00000000E+00
  1 15 44 5.24803152E+01 2.50000000E+06 1.00000000E+00