# File generated by Flopy version 3.10.0.dev3 on 06/15/2025 at 08:29:34.
BEGIN options
  PRINT_INPUT
  SAVE_FLOWS
  NEWTON  UNDER_RELAXATION
END options

BEGIN packages
  dis6  model.dis  dis
  ic6  model.ic  ic
  npf6  model.npf  npf
  rch6  model.rcha  rcha_0
  drn6  drn_riv.drn  river
  drn6  drn_gwd.drn  gwd
  oc6  model.oc  oc
END packages

