# File generated by Flopy version 3.8.2 on 01/20/2025 at 10:24:10.
BEGIN options
  READASARRAYS
END options

BEGIN period  1
  recharge
    CONSTANT  1.36986301E-04
END period  1

