# File generated by Flopy version 3.8.2 on 01/28/2025 at 20:11:04.
BEGIN options
END options

BEGIN dimensions
  MAXBOUND  572
END dimensions

BEGIN period  1
    OPEN/CLOSE  '../data/chd_000.dat'
END period  1

