# File generated by Flopy version 3.8.2 on 01/28/2025 at 20:11:04.
BEGIN options
  BUDGET  FILEOUT  A01_pleasant.cbc
  HEAD  FILEOUT  A01_pleasant.hds
END options

BEGIN period  1
  SAVE  head  all
  SAVE  budget  all
END period  1

