# File generated by Flopy version 3.8.2 on 01/28/2025 at 20:11:04.
BEGIN options
END options

BEGIN griddata
  strt  LAYERED
    OPEN/CLOSE  '../data/top.dat'  FACTOR  1.0
    OPEN/CLOSE  '../data/top.dat'  FACTOR  1.0
    OPEN/CLOSE  '../data/top.dat'  FACTOR  1.0
END griddata

