# File generated by Flopy version 3.8.2 on 01/28/2025 at 20:11:04.
BEGIN options
  SAVE_FLOWS
END options

BEGIN packages
  OC6  A01_pleasant.oc  oc
  DIS6  A01_pleasant.dis  dis
  NPF6  A01_pleasant.npf  npf
  IC6  A01_pleasant.ic  ic
  RCH6  A01_pleasant.rcha  rcha_0
  CHD6  A01_pleasant.chd  chd_0
  LAK6  A01_pleasant.lak  lak_0
END packages

