# File generated by Flopy version 3.8.2 on 01/28/2025 at 20:11:04.
BEGIN options
  COMPLEXITY  moderate
END options

BEGIN nonlinear
  OUTER_DVCLOSE       0.00100000
END nonlinear

