# File generated by Flopy version 3.8.2 on 01/28/2025 at 20:11:04.
BEGIN options
END options

BEGIN timing
  TDIS6  A01_pleasant.tdis
END timing

BEGIN models
  gwf6  A01_pleasant.nam  A01_pleasant
END models

BEGIN exchanges
END exchanges

BEGIN solutiongroup  1
  ims6  A01_pleasant.ims  A01_pleasant
END solutiongroup  1

