# File generated by Flopy version 3.9.1 on 05/01/2025 at 07:13:27.
BEGIN options
END options

BEGIN timing
  TDIS6  sfr-p01b.tdis
END timing

BEGIN models
  gwf6  sfr-p01b.nam  sfr-p01b
END models

BEGIN exchanges
END exchanges

BEGIN solutiongroup  1
  ims6  sfr-p01b.ims  sfr-p01b
END solutiongroup  1

