# File generated by Flopy version 3.9.1 on 04/16/2025 at 14:37:51.
BEGIN options
  TIME_UNITS  seconds
END options

BEGIN dimensions
  NPER  24
END dimensions

BEGIN perioddata
  2.62800000E+06  1       1.00000000
  2.62800000E+06  15       1.00000000
  2.62800000E+06  15       1.00000000
  2.62800000E+06  15       1.00000000
  2.62800000E+06  15       1.00000000
  2.62800000E+06  15       1.00000000
  2.62800000E+06  15       1.00000000
  2.62800000E+06  15       1.00000000
  2.62800000E+06  15       1.00000000
  2.62800000E+06  15       1.00000000
  2.62800000E+06  15       1.00000000
  2.62800000E+06  15       1.00000000
  2.62800000E+06  15       1.00000000
  2.62800000E+06  15       1.00000000
  2.62800000E+06  15       1.00000000
  2.62800000E+06  15       1.00000000
  2.62800000E+06  15       1.00000000
  2.62800000E+06  15       1.00000000
  2.62800000E+06  15       1.00000000
  2.62800000E+06  15       1.00000000
  2.62800000E+06  15       1.00000000
  2.62800000E+06  15       1.00000000
  2.62800000E+06  15       1.00000000
  2.62800000E+06  15       1.00000000
END perioddata

