# File generated by Flopy version 3.9.1 on 04/16/2025 at 14:37:51.
BEGIN options
  SAVE_FLOWS
  NEWTON
END options

BEGIN packages
  DIS6  sfr-p01b.dis  dis
  NPF6  sfr-p01b.npf  npf
  STO6  sfr-p01b.sto  sto
  IC6  sfr-p01b.ic  ic
  GHB6  sfr-p01b.ghb  ghb_0
  WEL6  sfr-p01b.wel  wel-1
  SFR6  sfr-p01b.sfr  sfr-1
  LAK6  sfr-p01b.lak  lak-1
  UZF6  sfr-p01b.uzf  uzf-1
  MVR6  sfr-p01b.mvr  mvr-1
  OC6  sfr-p01b.oc  oc
END packages

