# File generated by Flopy version 3.9.1 on 05/17/2025 at 10:07:56.
BEGIN options
  BOUNDNAMES
  PRINT_FLOWS
  BUDGET  FILEOUT  test001e_UZF_3lay.uzf.cbc
  BUDGETCSV  FILEOUT  test001e_UZF_3lay.uzf.cbc.csv
  PACKAGE_CONVERGENCE  FILEOUT  test001e_uzf_3lay.uzf_convergence.csv
  OBS6  FILEIN  test001e_UZF_3lay.obs
  SIMULATE_ET
  LINEAR_GWET
  SIMULATE_GWSEEP
END options

BEGIN Dimensions
  NUZFCELLS  24
  NTRAILWAVES  10
  NWAVESETS  40
END Dimensions

BEGIN PACKAGEDATA
  1  1 1 2  1  9       1.00000000       1.00000000       0.05000000       0.35000000       0.05000000       4.00000000  uzf01
  2  1 1 3  1  10       1.00000000       1.00000000       0.05000000       0.35000000       0.05000000       4.00000000  uzf02
  3  1 1 4  1  11       1.00000000       1.00000000       0.05000000       0.35000000       0.05000000       4.00000000  uzf03
  4  1 1 5  1  12       1.00000000       1.00000000       0.05000000       0.35000000       0.05000000       4.00000000  uzf04
  5  1 1 6  1  13       1.00000000       1.00000000       0.05000000       0.35000000       0.05000000       4.00000000  uzf05
  6  1 1 7  1  14       1.00000000       1.00000000       0.05000000       0.35000000       0.05000000       4.00000000  uzf06
  7  1 1 8  1  15       1.00000000       1.00000000       0.05000000       0.35000000       0.05000000       4.00000000  uzf07
  8  1 1 9  1  16       1.00000000       1.00000000       0.05000000       0.35000000       0.05000000       4.00000000  uzf08
  9  2 1 2  0  17       1.00000000       1.00000000       0.05000000       0.35000000       0.05000000       4.00000000  uzf08
  10  2 1 3  0  18       1.00000000       1.00000000       0.05000000       0.35000000       0.05000000       4.00000000  uzf10
  11  2 1 4  0  19       1.00000000       1.00000000       0.05000000       0.35000000       0.05000000       4.00000000  uzf11
  12  2 1 5  0  20       1.00000000       1.00000000       0.05000000       0.35000000       0.05000000       4.00000000  uzf12
  13  2 1 6  0  21       1.00000000       1.00000000       0.05000000       0.35000000       0.05000000       4.00000000  uzf13
  14  2 1 7  0  22       1.00000000       1.00000000       0.05000000       0.35000000       0.05000000       4.00000000  uzf14
  15  2 1 8  0  23       1.00000000       1.00000000       0.05000000       0.35000000       0.05000000       4.00000000  uzf15
  16  2 1 9  0  24       1.00000000       1.00000000       0.05000000       0.35000000       0.05000000       4.00000000  uzf16
  17  3 1 2  0  0       1.00000000       1.00000000       0.05000000       0.35000000       0.05000000       4.00000000  uzf17
  18  3 1 3  0  0       1.00000000       1.00000000       0.05000000       0.35000000       0.05000000       4.00000000  uzf18
  19  3 1 4  0  0       1.00000000       1.00000000       0.05000000       0.35000000       0.05000000       4.00000000  uzf19
  20  3 1 5  0  0       1.00000000       1.00000000       0.05000000       0.35000000       0.05000000       4.00000000  uzf20
  21  3 1 6  0  0       1.00000000       1.00000000       0.05000000       0.35000000       0.05000000       4.00000000  uzf21
  22  3 1 7  0  0       1.00000000       1.00000000       0.05000000       0.35000000       0.05000000       4.00000000  uzf22
  23  3 1 8  0  0       1.00000000       1.00000000       0.05000000       0.35000000       0.05000000       4.00000000  uzf23
  24  3 1 9  0  0       1.00000000       1.00000000       0.05000000       0.35000000       0.05000000       4.00000000  uzf24
END PACKAGEDATA

BEGIN period  1
  1  0.01  1.00e-06  1.50e+01  7.00e-02  0.00e+00  0.00e+00  0.00e+00
  2  0.01  1.00e-06  1.50e+01  7.00e-02  0.00e+00  0.00e+00  0.00e+00
  3  0.01  1.00e-06  1.50e+01  7.00e-02  0.00e+00  0.00e+00  0.00e+00
  4  0.01  1.00e-06  1.50e+01  7.00e-02  0.00e+00  0.00e+00  0.00e+00
  5  0.01  1.00e-06  1.50e+01  7.00e-02  0.00e+00  0.00e+00  0.00e+00
  6  0.01  1.00e-06  1.50e+01  7.00e-02  0.00e+00  0.00e+00  0.00e+00
  7  0.01  1.00e-06  1.50e+01  7.00e-02  0.00e+00  0.00e+00  0.00e+00
  8  0.01  1.00e-06  1.50e+01  7.00e-02  0.00e+00  0.00e+00  0.00e+00
  9  0.00  1.00e-06  1.50e+01  7.00e-02  0.00e+00  0.00e+00  0.00e+00
  10  0  1.00e-06  1.50e+01  7.00e-02  0.00e+00  0.00e+00  0.00e+00
  11  0  1.00e-06  1.50e+01  7.00e-02  0.00e+00  0.00e+00  0.00e+00
  12  0  1.00e-06  1.50e+01  7.00e-02  0.00e+00  0.00e+00  0.00e+00
  13  0  1.00e-06  1.50e+01  7.00e-02  0.00e+00  0.00e+00  0.00e+00
  14  0  1.00e-06  1.50e+01  7.00e-02  0.00e+00  0.00e+00  0.00e+00
  15  0  1.00e-06  1.50e+01  7.00e-02  0.00e+00  0.00e+00  0.00e+00
  16  0  1.00e-06  1.50e+01  7.00e-02  0.00e+00  0.00e+00  0.00e+00
END period  1

BEGIN period  2
  1  0.01  1.00e-06  1.50e+01  7.00e-02  0.00e+00  0.00e+00  0.00e+00
  2  0.01  1.00e-06  1.50e+01  7.00e-02  0.00e+00  0.00e+00  0.00e+00
  3  0.01  1.00e-06  1.50e+01  7.00e-02  0.00e+00  0.00e+00  0.00e+00
  4  0.01  1.00e-06  1.50e+01  7.00e-02  0.00e+00  0.00e+00  0.00e+00
  5  0.01  1.00e-06  1.50e+01  7.00e-02  0.00e+00  0.00e+00  0.00e+00
  6  0.01  1.00e-06  1.50e+01  7.00e-02  0.00e+00  0.00e+00  0.00e+00
  7  0.01  1.00e-06  1.50e+01  7.00e-02  0.00e+00  0.00e+00  0.00e+00
  8  0.01  1.00e-06  1.50e+01  7.00e-02  0.00e+00  0.00e+00  0.00e+00
  9  0  1.00e-06  1.50e+01  7.00e-02  0.00e+00  0.00e+00  0.00e+00
  10  0  1.00e-06  1.50e+01  7.00e-02  0.00e+00  0.00e+00  0.00e+00
  11  0  1.00e-06  1.50e+01  7.00e-02  0.00e+00  0.00e+00  0.00e+00
  12  0  1.00e-06  1.50e+01  7.00e-02  0.00e+00  0.00e+00  0.00e+00
  13  0  1.00e-06  1.50e+01  7.00e-02  0.00e+00  0.00e+00  0.00e+00
  14  0  1.00e-06  1.50e+01  7.00e-02  0.00e+00  0.00e+00  0.00e+00
  15  0  1.00e-06  1.50e+01  7.00e-02  0.00e+00  0.00e+00  0.00e+00
  16  0  1.00e-06  1.50e+01  7.00e-02  0.00e+00  0.00e+00  0.00e+00
END period  2

BEGIN period  3
  1  0.01  1.00e-06  1.50e+01  7.00e-02  0.00e+00  0.00e+00  0.00e+00
  2  0.01  1.00e-06  1.50e+01  7.00e-02  0.00e+00  0.00e+00  0.00e+00
  3  0.01  1.00e-06  1.50e+01  7.00e-02  0.00e+00  0.00e+00  0.00e+00
  4  0.01  1.00e-06  1.50e+01  7.00e-02  0.00e+00  0.00e+00  0.00e+00
  5  0.01  1.00e-06  1.50e+01  7.00e-02  0.00e+00  0.00e+00  0.00e+00
  6  0.01  1.00e-06  1.50e+01  7.00e-02  0.00e+00  0.00e+00  0.00e+00
  7  0.01  1.00e-06  1.50e+01  7.00e-02  0.00e+00  0.00e+00  0.00e+00
  8  0.01  1.00e-06  1.50e+01  7.00e-02  0.00e+00  0.00e+00  0.00e+00
  9  0  1.00e-06  1.50e+01  7.00e-02  0.00e+00  0.00e+00  0.00e+00
  10  0  1.00e-06  1.50e+01  7.00e-02  0.00e+00  0.00e+00  0.00e+00
  11  0  1.00e-06  1.50e+01  7.00e-02  0.00e+00  0.00e+00  0.00e+00
  12  0  1.00e-06  1.50e+01  7.00e-02  0.00e+00  0.00e+00  0.00e+00
  13  0  1.00e-06  1.50e+01  7.00e-02  0.00e+00  0.00e+00  0.00e+00
  14  0  1.00e-06  1.50e+01  7.00e-02  0.00e+00  0.00e+00  0.00e+00
  15  0  1.00e-06  1.50e+01  7.00e-02  0.00e+00  0.00e+00  0.00e+00
  16  0  1.00e-06  1.50e+01  7.00e-02  0.00e+00  0.00e+00  0.00e+00
END period  3

BEGIN period  4
  1  0  1.00e-06  1.50e+01  7.00e-02  0.00e+00  0.00e+00  0.00e+00
  2  0  1.00e-06  1.50e+01  7.00e-02  0.00e+00  0.00e+00  0.00e+00
  3  0  1.00e-06  1.50e+01  7.00e-02  0.00e+00  0.00e+00  0.00e+00
  4  0  1.00e-06  1.50e+01  7.00e-02  0.00e+00  0.00e+00  0.00e+00
  5  0  1.00e-06  1.50e+01  7.00e-02  0.00e+00  0.00e+00  0.00e+00
  6  0  1.00e-06  1.50e+01  7.00e-02  0.00e+00  0.00e+00  0.00e+00
  7  0  1.00e-06  1.50e+01  7.00e-02  0.00e+00  0.00e+00  0.00e+00
  8  0  1.00e-06  1.50e+01  7.00e-02  0.00e+00  0.00e+00  0.00e+00
  9  0  1.00e-06  1.50e+01  7.00e-02  0.00e+00  0.00e+00  0.00e+00
  10  0  1.00e-06  1.50e+01  7.00e-02  0.00e+00  0.00e+00  0.00e+00
  11  0  1.00e-06  1.50e+01  7.00e-02  0.00e+00  0.00e+00  0.00e+00
  12  0  1.00e-06  1.50e+01  7.00e-02  0.00e+00  0.00e+00  0.00e+00
  13  0  1.00e-06  1.50e+01  7.00e-02  0.00e+00  0.00e+00  0.00e+00
  14  0  1.00e-06  1.50e+01  7.00e-02  0.00e+00  0.00e+00  0.00e+00
  15  0  1.00e-06  1.50e+01  7.00e-02  0.00e+00  0.00e+00  0.00e+00
  16  0  1.00e-06  1.50e+01  7.00e-02  0.00e+00  0.00e+00  0.00e+00
END period  4

BEGIN period  5
  1  0  1.00e-06  1.50e+01  7.00e-02  0.00e+00  0.00e+00  0.00e+00
  2  0  1.00e-06  1.50e+01  7.00e-02  0.00e+00  0.00e+00  0.00e+00
  3  0  1.00e-06  1.50e+01  7.00e-02  0.00e+00  0.00e+00  0.00e+00
  4  0  1.00e-06  1.50e+01  7.00e-02  0.00e+00  0.00e+00  0.00e+00
  5  0  1.00e-06  1.50e+01  7.00e-02  0.00e+00  0.00e+00  0.00e+00
  6  0  1.00e-06  1.50e+01  7.00e-02  0.00e+00  0.00e+00  0.00e+00
  7  0  1.00e-06  1.50e+01  7.00e-02  0.00e+00  0.00e+00  0.00e+00
  8  0  1.00e-06  1.50e+01  7.00e-02  0.00e+00  0.00e+00  0.00e+00
  9  0  1.00e-06  1.50e+01  7.00e-02  0.00e+00  0.00e+00  0.00e+00
  10  0  1.00e-06  1.50e+01  7.00e-02  0.00e+00  0.00e+00  0.00e+00
  11  0  1.00e-06  1.50e+01  7.00e-02  0.00e+00  0.00e+00  0.00e+00
  12  0  1.00e-06  1.50e+01  7.00e-02  0.00e+00  0.00e+00  0.00e+00
  13  0  1.00e-06  1.50e+01  7.00e-02  0.00e+00  0.00e+00  0.00e+00
  14  0  1.00e-06  1.50e+01  7.00e-02  0.00e+00  0.00e+00  0.00e+00
  15  0  1.00e-06  1.50e+01  7.00e-02  0.00e+00  0.00e+00  0.00e+00
  16  0  1.00e-06  1.50e+01  7.00e-02  0.00e+00  0.00e+00  0.00e+00
END period  5

