BEGIN DIMENSIONS
    NCELLS  30
END DIMENSIONS

BEGIN GRIDDATA
  IZONE
  INTERNAL FACTOR 1 IPRN 0
  1  1  1  1  1  1  1  1  1  1  2  2  2  2  2  2  2  2  2  2
  3  3  3  3  3  3  3  3  3  3
END GRIDDATA
