# File generated by Flopy version 3.8.2 on 01/26/2025 at 08:57:09.
BEGIN options
  PRINT_FLOWS
END options

BEGIN sources
END sources

