# File generated by Flopy version 3.8.2 on 01/26/2025 at 08:57:07.
BEGIN options
END options

BEGIN griddata
  iconvert
    CONSTANT  0
  ss
    CONSTANT       0.00000000
  sy
    CONSTANT       0.00000000
END griddata

BEGIN period  1
  STEADY-STATE
END period  1

