# File generated by Flopy version 3.8.2 on 01/12/2025 at 09:50:28.
BEGIN options
END options

BEGIN packages
  CHD6  mf6lake.chd  chd
  NPF6  mf6lake.npf  npf
  IC6  mf6lake.ic  ic
  DIS6  mf6lake.dis  dis
  OC6  mf6lake.oc  oc
END packages

