# File generated by Flopy version 3.8.2 on 01/12/2025 at 09:50:28.
BEGIN options
END options

BEGIN timing
  TDIS6  mf6lake.tdis
END timing

BEGIN models
  gwf6  mf6lake.nam  mf6lake
END models

BEGIN exchanges
END exchanges

BEGIN solutiongroup  1
  ims6  mf6lake.ims  mf6lake
END solutiongroup  1

