## BTN for MT3DMS, generated by Flopy.
##
         1         1       101         2         1         1
S   CM  KG  
T T T T T 
 0
         0       0.2                           -1 #delr
         0       4.4                           -1 #delc
         0         0                           -1 #htop
        31         1         (101E15.6)        -1 #dz layer 1
   4.400000E+00   4.400000E+00   4.400000E+00   4.400000E+00   4.400000E+00   4.400000E+00   4.400000E+00   4.400000E+00   4.400000E+00   4.400000E+00   4.400000E+00   4.400000E+00   4.400000E+00   4.400000E+00   4.400000E+00   4.400000E+00   4.400000E+00   4.400000E+00   4.400000E+00   4.400000E+00   4.400000E+00   4.400000E+00   4.400000E+00   4.400000E+00   4.400000E+00   4.400000E+00   4.400000E+00   4.400000E+00   4.400000E+00   4.400000E+00   4.400000E+00   4.400000E+00   4.400000E+00   4.400000E+00   4.400000E+00   4.400000E+00   4.400000E+00   4.400000E+00   4.400000E+00   4.400000E+00   4.400000E+00   4.400000E+00   4.400000E+00   4.400000E+00   4.400000E+00   4.400000E+00   4.400000E+00   4.400000E+00   4.400000E+00   4.400000E+00   4.400000E+00   4.400000E+00   4.400000E+00   4.400000E+00   4.400000E+00   4.400000E+00   4.400000E+00   4.400000E+00   4.400000E+00   4.400000E+00   4.400000E+00   4.400000E+00   4.400000E+00   4.400000E+00   4.400000E+00   4.400000E+00   4.400000E+00   4.400000E+00   4.400000E+00   4.400000E+00   4.400000E+00   4.400000E+00   4.400000E+00   4.400000E+00   4.400000E+00   4.400000E+00   4.400000E+00   4.400000E+00   4.400000E+00   4.400000E+00   4.400000E+00   4.400000E+00   4.400000E+00   4.400000E+00   4.400000E+00   4.400000E+00   4.400000E+00   4.400000E+00   4.400000E+00   4.400000E+00   4.400000E+00   4.400000E+00   4.400000E+00   4.400000E+00   4.400000E+00   4.400000E+00   4.400000E+00   4.400000E+00   4.400000E+00   4.400000E+00   4.400000E+00
         0       0.3                           -1 #prsity layer 1
        31         1           (101I10)        -1 #icbund layer 1
         1         1         1         1         1         1         1         1         1         1         1         1         1         1         1         1         1         1         1         1         1         1         1         1         1         1         1         1         1         1         1         1         1         1         1         1         1         1         1         1         1         1         1         1         1         1         1         1         1         1         1         1         1         1         1         1         1         1         1         1         1         1         1         1         1         1         1         1         1         1         1         1         1         1         1         1         1         1         1         1         1         1         1         1         1         1         1         1         1         1         1         1         1         1         1         1         1         1         1         1         1
        31         1         (101E15.6)        -1 #sconc1 layer 1
   0.000000E+00   0.000000E+00   0.000000E+00   0.000000E+00   0.000000E+00   0.000000E+00   0.000000E+00   0.000000E+00   0.000000E+00   0.000000E+00   0.000000E+00   0.000000E+00   0.000000E+00   0.000000E+00   0.000000E+00   0.000000E+00   0.000000E+00   0.000000E+00   0.000000E+00   0.000000E+00   0.000000E+00   0.000000E+00   0.000000E+00   0.000000E+00   0.000000E+00   0.000000E+00   0.000000E+00   0.000000E+00   0.000000E+00   0.000000E+00   0.000000E+00   0.000000E+00   0.000000E+00   0.000000E+00   0.000000E+00   0.000000E+00   0.000000E+00   0.000000E+00   0.000000E+00   0.000000E+00   0.000000E+00   0.000000E+00   0.000000E+00   0.000000E+00   0.000000E+00   0.000000E+00   0.000000E+00   0.000000E+00   0.000000E+00   0.000000E+00   0.000000E+00   0.000000E+00   0.000000E+00   0.000000E+00   0.000000E+00   0.000000E+00   0.000000E+00   0.000000E+00   0.000000E+00   0.000000E+00   0.000000E+00   0.000000E+00   0.000000E+00   0.000000E+00   0.000000E+00   0.000000E+00   0.000000E+00   0.000000E+00   0.000000E+00   0.000000E+00   0.000000E+00   0.000000E+00   0.000000E+00   0.000000E+00   0.000000E+00   0.000000E+00   0.000000E+00   0.000000E+00   0.000000E+00   0.000000E+00   0.000000E+00   0.000000E+00   0.000000E+00   0.000000E+00   0.000000E+00   0.000000E+00   0.000000E+00   0.000000E+00   0.000000E+00   0.000000E+00   0.000000E+00   0.000000E+00   0.000000E+00   0.000000E+00   0.000000E+00   0.000000E+00   0.000000E+00   0.000000E+00   0.000000E+00   0.000000E+00   0.000000E+00
     1E+30  1.00E-02
         0         0         0         0         T
       100
0.0000E+009.1200E+011.8240E+022.7360E+023.6480E+024.5600E+025.4720E+026.3840E+02
7.2960E+028.2080E+029.1200E+021.0032E+031.0944E+031.1856E+031.2768E+031.3680E+03
1.4592E+031.5504E+031.6416E+031.7328E+031.8240E+031.9152E+032.0064E+032.0976E+03
2.1888E+032.2800E+032.3712E+032.4624E+032.5536E+032.6448E+032.7360E+032.8272E+03
2.9184E+033.0096E+033.1008E+033.1920E+033.2832E+033.3744E+033.4656E+033.5568E+03
3.6480E+033.7392E+033.8304E+033.9216E+034.0128E+034.1040E+034.1952E+034.2864E+03
4.3776E+034.4688E+034.5600E+034.6512E+034.7424E+034.8336E+034.9248E+035.0160E+03
5.1072E+035.1984E+035.2896E+035.3808E+035.4720E+035.5632E+035.6544E+035.7456E+03
5.8368E+035.9280E+036.0192E+036.1104E+036.2016E+036.2928E+036.3840E+036.4752E+03
6.5664E+036.6576E+036.7488E+036.8400E+036.9312E+037.0224E+037.1136E+037.2048E+03
7.2960E+037.3872E+037.4784E+037.5696E+037.6608E+037.7520E+037.8432E+037.9344E+03
8.0256E+038.1168E+038.2080E+038.2992E+038.3904E+038.4816E+038.5728E+038.6640E+03
8.7552E+038.8464E+038.9376E+039.0288E+03
         0         1
         T         1
       120         1         1
         0     50000         1         0
      9000         1         1
         0     50000         1         0
