# Name file for MT3DMS, generated by Flopy version 3.9.1.
LIST              16  homogeneous_2D_mt.list
FTL               10  mt3d_link.ftl 
BTN               31  homogeneous_2D_mt.btn
ADV               32  homogeneous_2D_mt.adv
DSP               33  homogeneous_2D_mt.dsp
SSM               34  homogeneous_2D_mt.ssm
GCG               35  homogeneous_2D_mt.gcg
