# Name file for MODPATH 7, generated by Flopy version 3.9.1.
MPBAS      ex01_mf6_mp_backward.mpbas
GRBDIS     ..\04_Path_w03_c\ex01_mf6.dis.grb
TDIS       ..\04_Path_w03_c\ex01_mf6.tdis
HEAD       ..\04_Path_w03_c\ex01_mf6.hds
BUDGET     ..\04_Path_w03_c\ex01_mf6.cbb
