MODPATH_TIMESERIES_FILE         7         2
    2   0.0000000000E+00  0.0000000000E+00  0.0000000000E+00  0.0000000000E+00
END HEADER
       0       1  0.0000000000E+00         1    1         1      1050  0.5000000000E+00  0.5000000000E+00  0.1000000000E+00  0.4750000000E+04  0.5250000000E+04  0.2000000000E+02         3
       0       1  0.0000000000E+00         2    1         2      1050  0.5000000000E+00  0.5000000000E+00  0.3000000000E+00  0.4750000000E+04  0.5250000000E+04  0.6000000000E+02         3
       0       1  0.0000000000E+00         3    1         3      1050  0.5000000000E+00  0.5000000000E+00  0.5000000000E+00  0.4750000000E+04  0.5250000000E+04  0.1000000000E+03         3
       0       1  0.0000000000E+00         4    1         4      1050  0.5000000000E+00  0.5000000000E+00  0.7000000000E+00  0.4750000000E+04  0.5250000000E+04  0.1400000000E+03         3
       0       1  0.0000000000E+00         5    1         5      1050  0.5000000000E+00  0.5000000000E+00  0.9000000000E+00  0.4750000000E+04  0.5250000000E+04  0.1800000000E+03         3
       0       1  0.0000000000E+00         6    1         6        20  0.5000000000E+00  0.5000000000E+00  0.1000000000E+00  0.9750000000E+04  0.1025000000E+05  0.2300178974E+03         1
       0       1  0.0000000000E+00         7    1         7        20  0.5000000000E+00  0.5000000000E+00  0.3000000000E+00  0.9750000000E+04  0.1025000000E+05  0.2500536922E+03         1
       0       1  0.0000000000E+00         8    1         8        20  0.5000000000E+00  0.5000000000E+00  0.5000000000E+00  0.9750000000E+04  0.1025000000E+05  0.2700894870E+03         1
       0       1  0.0000000000E+00         9    1         9        20  0.5000000000E+00  0.5000000000E+00  0.7000000000E+00  0.9750000000E+04  0.1025000000E+05  0.2901252818E+03         1
       0       1  0.0000000000E+00        10    1        10        20  0.5000000000E+00  0.5000000000E+00  0.9000000000E+00  0.9750000000E+04  0.1025000000E+05  0.3101610766E+03         1
       0       1  0.0000000000E+00        11    1        11        40  0.5000000000E+00  0.5000000000E+00  0.1000000000E+00  0.9750000000E+04  0.9750000000E+04  0.2300178941E+03         1
       0       1  0.0000000000E+00        12    1        12        40  0.5000000000E+00  0.5000000000E+00  0.3000000000E+00  0.9750000000E+04  0.9750000000E+04  0.2500536822E+03         1
       0       1  0.0000000000E+00        13    1        13        40  0.5000000000E+00  0.5000000000E+00  0.5000000000E+00  0.9750000000E+04  0.9750000000E+04  0.2700894704E+03         1
       0       1  0.0000000000E+00        14    1        14        40  0.5000000000E+00  0.5000000000E+00  0.7000000000E+00  0.9750000000E+04  0.9750000000E+04  0.2901252585E+03         1
       0       1  0.0000000000E+00        15    1        15        40  0.5000000000E+00  0.5000000000E+00  0.9000000000E+00  0.9750000000E+04  0.9750000000E+04  0.3101610467E+03         1
       0       1  0.0000000000E+00        16    1        16        60  0.5000000000E+00  0.5000000000E+00  0.1000000000E+00  0.9750000000E+04  0.9250000000E+04  0.2300178876E+03         1
       0       1  0.0000000000E+00        17    1        17        60  0.5000000000E+00  0.5000000000E+00  0.3000000000E+00  0.9750000000E+04  0.9250000000E+04  0.2500536629E+03         1
       0       1  0.0000000000E+00        18    1        18        60  0.5000000000E+00  0.5000000000E+00  0.5000000000E+00  0.9750000000E+04  0.9250000000E+04  0.2700894382E+03         1
       0       1  0.0000000000E+00        19    1        19        60  0.5000000000E+00  0.5000000000E+00  0.7000000000E+00  0.9750000000E+04  0.9250000000E+04  0.2901252135E+03         1
       0       1  0.0000000000E+00        20    1        20        60  0.5000000000E+00  0.5000000000E+00  0.9000000000E+00  0.9750000000E+04  0.9250000000E+04  0.3101609888E+03         1
       0       1  0.0000000000E+00        21    1        21        80  0.5000000000E+00  0.5000000000E+00  0.1000000000E+00  0.9750000000E+04  0.8750000000E+04  0.2300178785E+03         1
       0       1  0.0000000000E+00        22    1        22        80  0.5000000000E+00  0.5000000000E+00  0.3000000000E+00  0.9750000000E+04  0.8750000000E+04  0.2500536356E+03         1
       0       1  0.0000000000E+00        23    1        23        80  0.5000000000E+00  0.5000000000E+00  0.5000000000E+00  0.9750000000E+04  0.8750000000E+04  0.2700893927E+03         1
       0       1  0.0000000000E+00        24    1        24        80  0.5000000000E+00  0.5000000000E+00  0.7000000000E+00  0.9750000000E+04  0.8750000000E+04  0.2901251498E+03         1
       0       1  0.0000000000E+00        25    1        25        80  0.5000000000E+00  0.5000000000E+00  0.9000000000E+00  0.9750000000E+04  0.8750000000E+04  0.3101609069E+03         1
       0       1  0.0000000000E+00        26    1        26       100  0.5000000000E+00  0.5000000000E+00  0.1000000000E+00  0.9750000000E+04  0.8250000000E+04  0.2300178674E+03         1
       0       1  0.0000000000E+00        27    1        27       100  0.5000000000E+00  0.5000000000E+00  0.3000000000E+00  0.9750000000E+04  0.8250000000E+04  0.2500536023E+03         1
       0       1  0.0000000000E+00        28    1        28       100  0.5000000000E+00  0.5000000000E+00  0.5000000000E+00  0.9750000000E+04  0.8250000000E+04  0.2700893372E+03         1
       0       1  0.0000000000E+00        29    1        29       100  0.5000000000E+00  0.5000000000E+00  0.7000000000E+00  0.9750000000E+04  0.8250000000E+04  0.2901250720E+03         1
       0       1  0.0000000000E+00        30    1        30       100  0.5000000000E+00  0.5000000000E+00  0.9000000000E+00  0.9750000000E+04  0.8250000000E+04  0.3101608069E+03         1
       0       1  0.0000000000E+00        31    1        31       120  0.5000000000E+00  0.5000000000E+00  0.1000000000E+00  0.9750000000E+04  0.7750000000E+04  0.2300178552E+03         1
       0       1  0.0000000000E+00        32    1        32       120  0.5000000000E+00  0.5000000000E+00  0.3000000000E+00  0.9750000000E+04  0.7750000000E+04  0.2500535655E+03         1
       0       1  0.0000000000E+00        33    1        33       120  0.5000000000E+00  0.5000000000E+00  0.5000000000E+00  0.9750000000E+04  0.7750000000E+04  0.2700892758E+03         1
       0       1  0.0000000000E+00        34    1        34       120  0.5000000000E+00  0.5000000000E+00  0.7000000000E+00  0.9750000000E+04  0.7750000000E+04  0.2901249861E+03         1
       0       1  0.0000000000E+00        35    1        35       120  0.5000000000E+00  0.5000000000E+00  0.9000000000E+00  0.9750000000E+04  0.7750000000E+04  0.3101606964E+03         1
       0       1  0.0000000000E+00        36    1        36       140  0.5000000000E+00  0.5000000000E+00  0.1000000000E+00  0.9750000000E+04  0.7250000000E+04  0.2300178428E+03         1
       0       1  0.0000000000E+00        37    1        37       140  0.5000000000E+00  0.5000000000E+00  0.3000000000E+00  0.9750000000E+04  0.7250000000E+04  0.2500535283E+03         1
       0       1  0.0000000000E+00        38    1        38       140  0.5000000000E+00  0.5000000000E+00  0.5000000000E+00  0.9750000000E+04  0.7250000000E+04  0.2700892138E+03         1
       0       1  0.0000000000E+00        39    1        39       140  0.5000000000E+00  0.5000000000E+00  0.7000000000E+00  0.9750000000E+04  0.7250000000E+04  0.2901248994E+03         1
       0       1  0.0000000000E+00        40    1        40       140  0.5000000000E+00  0.5000000000E+00  0.9000000000E+00  0.9750000000E+04  0.7250000000E+04  0.3101605849E+03         1
       0       1  0.0000000000E+00        41    1        41       160  0.5000000000E+00  0.5000000000E+00  0.1000000000E+00  0.9750000000E+04  0.6750000000E+04  0.2300178314E+03         1
       0       1  0.0000000000E+00        42    1        42       160  0.5000000000E+00  0.5000000000E+00  0.3000000000E+00  0.9750000000E+04  0.6750000000E+04  0.2500534942E+03         1
       0       1  0.0000000000E+00        43    1        43       160  0.5000000000E+00  0.5000000000E+00  0.5000000000E+00  0.9750000000E+04  0.6750000000E+04  0.2700891570E+03         1
       0       1  0.0000000000E+00        44    1        44       160  0.5000000000E+00  0.5000000000E+00  0.7000000000E+00  0.9750000000E+04  0.6750000000E+04  0.2901248198E+03         1
       0       1  0.0000000000E+00        45    1        45       160  0.5000000000E+00  0.5000000000E+00  0.9000000000E+00  0.9750000000E+04  0.6750000000E+04  0.3101604827E+03         1
       0       1  0.0000000000E+00        46    1        46       180  0.5000000000E+00  0.5000000000E+00  0.1000000000E+00  0.9750000000E+04  0.6250000000E+04  0.2300178222E+03         1
       0       1  0.0000000000E+00        47    1        47       180  0.5000000000E+00  0.5000000000E+00  0.3000000000E+00  0.9750000000E+04  0.6250000000E+04  0.2500534667E+03         1
       0       1  0.0000000000E+00        48    1        48       180  0.5000000000E+00  0.5000000000E+00  0.5000000000E+00  0.9750000000E+04  0.6250000000E+04  0.2700891112E+03         1
       0       1  0.0000000000E+00        49    1        49       180  0.5000000000E+00  0.5000000000E+00  0.7000000000E+00  0.9750000000E+04  0.6250000000E+04  0.2901247556E+03         1
       0       1  0.0000000000E+00        50    1        50       180  0.5000000000E+00  0.5000000000E+00  0.9000000000E+00  0.9750000000E+04  0.6250000000E+04  0.3101604001E+03         1
       0       1  0.0000000000E+00        51    1        51       200  0.5000000000E+00  0.5000000000E+00  0.1000000000E+00  0.9750000000E+04  0.5750000000E+04  0.2300178163E+03         1
       0       1  0.0000000000E+00        52    1        52       200  0.5000000000E+00  0.5000000000E+00  0.3000000000E+00  0.9750000000E+04  0.5750000000E+04  0.2500534488E+03         1
       0       1  0.0000000000E+00        53    1        53       200  0.5000000000E+00  0.5000000000E+00  0.5000000000E+00  0.9750000000E+04  0.5750000000E+04  0.2700890813E+03         1
       0       1  0.0000000000E+00        54    1        54       200  0.5000000000E+00  0.5000000000E+00  0.7000000000E+00  0.9750000000E+04  0.5750000000E+04  0.2901247138E+03         1
       0       1  0.0000000000E+00        55    1        55       200  0.5000000000E+00  0.5000000000E+00  0.9000000000E+00  0.9750000000E+04  0.5750000000E+04  0.3101603463E+03         1
       0       1  0.0000000000E+00        56    1        56       220  0.5000000000E+00  0.5000000000E+00  0.1000000000E+00  0.9750000000E+04  0.5250000000E+04  0.2300178142E+03         1
       0       1  0.0000000000E+00        57    1        57       220  0.5000000000E+00  0.5000000000E+00  0.3000000000E+00  0.9750000000E+04  0.5250000000E+04  0.2500534425E+03         1
       0       1  0.0000000000E+00        58    1        58       220  0.5000000000E+00  0.5000000000E+00  0.5000000000E+00  0.9750000000E+04  0.5250000000E+04  0.2700890709E+03         1
       0       1  0.0000000000E+00        59    1        59       220  0.5000000000E+00  0.5000000000E+00  0.7000000000E+00  0.9750000000E+04  0.5250000000E+04  0.2901246992E+03         1
       0       1  0.0000000000E+00        60    1        60       220  0.5000000000E+00  0.5000000000E+00  0.9000000000E+00  0.9750000000E+04  0.5250000000E+04  0.3101603276E+03         1
       0       1  0.0000000000E+00        61    1        61       240  0.5000000000E+00  0.5000000000E+00  0.1000000000E+00  0.9750000000E+04  0.4750000000E+04  0.2300178163E+03         1
       0       1  0.0000000000E+00        62    1        62       240  0.5000000000E+00  0.5000000000E+00  0.3000000000E+00  0.9750000000E+04  0.4750000000E+04  0.2500534488E+03         1
       0       1  0.0000000000E+00        63    1        63       240  0.5000000000E+00  0.5000000000E+00  0.5000000000E+00  0.9750000000E+04  0.4750000000E+04  0.2700890813E+03         1
       0       1  0.0000000000E+00        64    1        64       240  0.5000000000E+00  0.5000000000E+00  0.7000000000E+00  0.9750000000E+04  0.4750000000E+04  0.2901247138E+03         1
       0       1  0.0000000000E+00        65    1        65       240  0.5000000000E+00  0.5000000000E+00  0.9000000000E+00  0.9750000000E+04  0.4750000000E+04  0.3101603463E+03         1
       0       1  0.0000000000E+00        66    1        66       260  0.5000000000E+00  0.5000000000E+00  0.1000000000E+00  0.9750000000E+04  0.4250000000E+04  0.2300178222E+03         1
       0       1  0.0000000000E+00        67    1        67       260  0.5000000000E+00  0.5000000000E+00  0.3000000000E+00  0.9750000000E+04  0.4250000000E+04  0.2500534667E+03         1
       0       1  0.0000000000E+00        68    1        68       260  0.5000000000E+00  0.5000000000E+00  0.5000000000E+00  0.9750000000E+04  0.4250000000E+04  0.2700891112E+03         1
       0       1  0.0000000000E+00        69    1        69       260  0.5000000000E+00  0.5000000000E+00  0.7000000000E+00  0.9750000000E+04  0.4250000000E+04  0.2901247556E+03         1
       0       1  0.0000000000E+00        70    1        70       260  0.5000000000E+00  0.5000000000E+00  0.9000000000E+00  0.9750000000E+04  0.4250000000E+04  0.3101604001E+03         1
       0       1  0.0000000000E+00        71    1        71       280  0.5000000000E+00  0.5000000000E+00  0.1000000000E+00  0.9750000000E+04  0.3750000000E+04  0.2300178314E+03         1
       0       1  0.0000000000E+00        72    1        72       280  0.5000000000E+00  0.5000000000E+00  0.3000000000E+00  0.9750000000E+04  0.3750000000E+04  0.2500534942E+03         1
       0       1  0.0000000000E+00        73    1        73       280  0.5000000000E+00  0.5000000000E+00  0.5000000000E+00  0.9750000000E+04  0.3750000000E+04  0.2700891570E+03         1
       0       1  0.0000000000E+00        74    1        74       280  0.5000000000E+00  0.5000000000E+00  0.7000000000E+00  0.9750000000E+04  0.3750000000E+04  0.2901248198E+03         1
       0       1  0.0000000000E+00        75    1        75       280  0.5000000000E+00  0.5000000000E+00  0.9000000000E+00  0.9750000000E+04  0.3750000000E+04  0.3101604827E+03         1
       0       1  0.0000000000E+00        76    1        76       300  0.5000000000E+00  0.5000000000E+00  0.1000000000E+00  0.9750000000E+04  0.3250000000E+04  0.2300178428E+03         1
       0       1  0.0000000000E+00        77    1        77       300  0.5000000000E+00  0.5000000000E+00  0.3000000000E+00  0.9750000000E+04  0.3250000000E+04  0.2500535283E+03         1
       0       1  0.0000000000E+00        78    1        78       300  0.5000000000E+00  0.5000000000E+00  0.5000000000E+00  0.9750000000E+04  0.3250000000E+04  0.2700892138E+03         1
       0       1  0.0000000000E+00        79    1        79       300  0.5000000000E+00  0.5000000000E+00  0.7000000000E+00  0.9750000000E+04  0.3250000000E+04  0.2901248994E+03         1
       0       1  0.0000000000E+00        80    1        80       300  0.5000000000E+00  0.5000000000E+00  0.9000000000E+00  0.9750000000E+04  0.3250000000E+04  0.3101605849E+03         1
       0       1  0.0000000000E+00        81    1        81       320  0.5000000000E+00  0.5000000000E+00  0.1000000000E+00  0.9750000000E+04  0.2750000000E+04  0.2300178552E+03         1
       0       1  0.0000000000E+00        82    1        82       320  0.5000000000E+00  0.5000000000E+00  0.3000000000E+00  0.9750000000E+04  0.2750000000E+04  0.2500535655E+03         1
       0       1  0.0000000000E+00        83    1        83       320  0.5000000000E+00  0.5000000000E+00  0.5000000000E+00  0.9750000000E+04  0.2750000000E+04  0.2700892758E+03         1
       0       1  0.0000000000E+00        84    1        84       320  0.5000000000E+00  0.5000000000E+00  0.7000000000E+00  0.9750000000E+04  0.2750000000E+04  0.2901249861E+03         1
       0       1  0.0000000000E+00        85    1        85       320  0.5000000000E+00  0.5000000000E+00  0.9000000000E+00  0.9750000000E+04  0.2750000000E+04  0.3101606964E+03         1
       0       1  0.0000000000E+00        86    1        86       340  0.5000000000E+00  0.5000000000E+00  0.1000000000E+00  0.9750000000E+04  0.2250000000E+04  0.2300178674E+03         1
       0       1  0.0000000000E+00        87    1        87       340  0.5000000000E+00  0.5000000000E+00  0.3000000000E+00  0.9750000000E+04  0.2250000000E+04  0.2500536023E+03         1
       0       1  0.0000000000E+00        88    1        88       340  0.5000000000E+00  0.5000000000E+00  0.5000000000E+00  0.9750000000E+04  0.2250000000E+04  0.2700893372E+03         1
       0       1  0.0000000000E+00        89    1        89       340  0.5000000000E+00  0.5000000000E+00  0.7000000000E+00  0.9750000000E+04  0.2250000000E+04  0.2901250720E+03         1
       0       1  0.0000000000E+00        90    1        90       340  0.5000000000E+00  0.5000000000E+00  0.9000000000E+00  0.9750000000E+04  0.2250000000E+04  0.3101608069E+03         1
       0       1  0.0000000000E+00        91    1        91       360  0.5000000000E+00  0.5000000000E+00  0.1000000000E+00  0.9750000000E+04  0.1750000000E+04  0.2300178785E+03         1
       0       1  0.0000000000E+00        92    1        92       360  0.5000000000E+00  0.5000000000E+00  0.3000000000E+00  0.9750000000E+04  0.1750000000E+04  0.2500536356E+03         1
       0       1  0.0000000000E+00        93    1        93       360  0.5000000000E+00  0.5000000000E+00  0.5000000000E+00  0.9750000000E+04  0.1750000000E+04  0.2700893927E+03         1
       0       1  0.0000000000E+00        94    1        94       360  0.5000000000E+00  0.5000000000E+00  0.7000000000E+00  0.9750000000E+04  0.1750000000E+04  0.2901251498E+03         1
       0       1  0.0000000000E+00        95    1        95       360  0.5000000000E+00  0.5000000000E+00  0.9000000000E+00  0.9750000000E+04  0.1750000000E+04  0.3101609069E+03         1
       0       1  0.0000000000E+00        96    1        96       380  0.5000000000E+00  0.5000000000E+00  0.1000000000E+00  0.9750000000E+04  0.1250000000E+04  0.2300178876E+03         1
       0       1  0.0000000000E+00        97    1        97       380  0.5000000000E+00  0.5000000000E+00  0.3000000000E+00  0.9750000000E+04  0.1250000000E+04  0.2500536629E+03         1
       0       1  0.0000000000E+00        98    1        98       380  0.5000000000E+00  0.5000000000E+00  0.5000000000E+00  0.9750000000E+04  0.1250000000E+04  0.2700894382E+03         1
       0       1  0.0000000000E+00        99    1        99       380  0.5000000000E+00  0.5000000000E+00  0.7000000000E+00  0.9750000000E+04  0.1250000000E+04  0.2901252135E+03         1
       0       1  0.0000000000E+00       100    1       100       380  0.5000000000E+00  0.5000000000E+00  0.9000000000E+00  0.9750000000E+04  0.1250000000E+04  0.3101609888E+03         1
       0       1  0.0000000000E+00       101    1       101       400  0.5000000000E+00  0.5000000000E+00  0.1000000000E+00  0.9750000000E+04  0.7500000000E+03  0.2300178941E+03         1
       0       1  0.0000000000E+00       102    1       102       400  0.5000000000E+00  0.5000000000E+00  0.3000000000E+00  0.9750000000E+04  0.7500000000E+03  0.2500536822E+03         1
       0       1  0.0000000000E+00       103    1       103       400  0.5000000000E+00  0.5000000000E+00  0.5000000000E+00  0.9750000000E+04  0.7500000000E+03  0.2700894704E+03         1
       0       1  0.0000000000E+00       104    1       104       400  0.5000000000E+00  0.5000000000E+00  0.7000000000E+00  0.9750000000E+04  0.7500000000E+03  0.2901252585E+03         1
       0       1  0.0000000000E+00       105    1       105       400  0.5000000000E+00  0.5000000000E+00  0.9000000000E+00  0.9750000000E+04  0.7500000000E+03  0.3101610467E+03         1
       0       1  0.0000000000E+00       106    1       106       420  0.5000000000E+00  0.5000000000E+00  0.1000000000E+00  0.9750000000E+04  0.2500000000E+03  0.2300178974E+03         1
       0       1  0.0000000000E+00       107    1       107       420  0.5000000000E+00  0.5000000000E+00  0.3000000000E+00  0.9750000000E+04  0.2500000000E+03  0.2500536922E+03         1
       0       1  0.0000000000E+00       108    1       108       420  0.5000000000E+00  0.5000000000E+00  0.5000000000E+00  0.9750000000E+04  0.2500000000E+03  0.2700894870E+03         1
       0       1  0.0000000000E+00       109    1       109       420  0.5000000000E+00  0.5000000000E+00  0.7000000000E+00  0.9750000000E+04  0.2500000000E+03  0.2901252818E+03         1
       0       1  0.0000000000E+00       110    1       110       420  0.5000000000E+00  0.5000000000E+00  0.9000000000E+00  0.9750000000E+04  0.2500000000E+03  0.3101610766E+03         1
       1       1  0.1000000000E-01         1    1         1      1050  0.4999970533E+00  0.5000000000E+00  0.1000000589E+00  0.4749998527E+04  0.5250000000E+04  0.2000001178E+02         3
       1       1  0.1000000000E-01         2    1         2      1050  0.4999970533E+00  0.5000000000E+00  0.3000001766E+00  0.4749998527E+04  0.5250000000E+04  0.6000003533E+02         3
       1       1  0.1000000000E-01         3    1         3      1050  0.4999970533E+00  0.5000000000E+00  0.5000002944E+00  0.4749998527E+04  0.5250000000E+04  0.1000000589E+03         3
       1       1  0.1000000000E-01         4    1         4      1050  0.4999970533E+00  0.5000000000E+00  0.7000004122E+00  0.4749998527E+04  0.5250000000E+04  0.1400000824E+03         3
       1       1  0.1000000000E-01         5    1         5      1050  0.4999970533E+00  0.5000000000E+00  0.9000005299E+00  0.4749998527E+04  0.5250000000E+04  0.1800001060E+03         3
       1       1  0.1000000000E-01         6    1         6        20  0.4999897490E+00  0.5000000001E+00  0.9999851022E-01  0.9749994875E+04  0.1025000000E+05  0.2300177482E+03         1
       1       1  0.1000000000E-01         7    1         7        20  0.4999897490E+00  0.5000000001E+00  0.2999988413E+00  0.9749994875E+04  0.1025000000E+05  0.2500535761E+03         1
       1       1  0.1000000000E-01         8    1         8        20  0.4999897490E+00  0.5000000001E+00  0.4999991723E+00  0.9749994875E+04  0.1025000000E+05  0.2700894041E+03         1
       1       1  0.1000000000E-01         9    1         9        20  0.4999897490E+00  0.5000000001E+00  0.6999995034E+00  0.9749994875E+04  0.1025000000E+05  0.2901252320E+03         1
       1       1  0.1000000000E-01        10    1        10        20  0.4999897490E+00  0.5000000001E+00  0.8999998345E+00  0.9749994875E+04  0.1025000000E+05  0.3101610600E+03         1
       1       1  0.1000000000E-01        11    1        11        40  0.4999897509E+00  0.5000000003E+00  0.9999851081E-01  0.9749994875E+04  0.9750000000E+04  0.2300177449E+03         1
       1       1  0.1000000000E-01        12    1        12        40  0.4999897509E+00  0.5000000003E+00  0.2999988417E+00  0.9749994875E+04  0.9750000000E+04  0.2500535662E+03         1
       1       1  0.1000000000E-01        13    1        13        40  0.4999897509E+00  0.5000000003E+00  0.4999991727E+00  0.9749994875E+04  0.9750000000E+04  0.2700893875E+03         1
       1       1  0.1000000000E-01        14    1        14        40  0.4999897509E+00  0.5000000003E+00  0.6999995036E+00  0.9749994875E+04  0.9750000000E+04  0.2901252088E+03         1
       1       1  0.1000000000E-01        15    1        15        40  0.4999897509E+00  0.5000000003E+00  0.8999998345E+00  0.9749994875E+04  0.9750000000E+04  0.3101610301E+03         1
       1       1  0.1000000000E-01        16    1        16        60  0.4999897545E+00  0.5000000005E+00  0.9999851195E-01  0.9749994877E+04  0.9250000000E+04  0.2300177386E+03         1
       1       1  0.1000000000E-01        17    1        17        60  0.4999897545E+00  0.5000000005E+00  0.2999988426E+00  0.9749994877E+04  0.9250000000E+04  0.2500535470E+03         1
       1       1  0.1000000000E-01        18    1        18        60  0.4999897545E+00  0.5000000005E+00  0.4999991733E+00  0.9749994877E+04  0.9250000000E+04  0.2700893554E+03         1
       1       1  0.1000000000E-01        19    1        19        60  0.4999897545E+00  0.5000000005E+00  0.6999995040E+00  0.9749994877E+04  0.9250000000E+04  0.2901251638E+03         1
       1       1  0.1000000000E-01        20    1        20        60  0.4999897545E+00  0.5000000005E+00  0.8999998347E+00  0.9749994877E+04  0.9250000000E+04  0.3101609722E+03         1
       1       1  0.1000000000E-01        21    1        21        80  0.4999897597E+00  0.5000000007E+00  0.9999851356E-01  0.9749994880E+04  0.8750000000E+04  0.2300177296E+03         1
       1       1  0.1000000000E-01        22    1        22        80  0.4999897597E+00  0.5000000007E+00  0.2999988439E+00  0.9749994880E+04  0.8750000000E+04  0.2500535198E+03         1
       1       1  0.1000000000E-01        23    1        23        80  0.4999897597E+00  0.5000000007E+00  0.4999991742E+00  0.9749994880E+04  0.8750000000E+04  0.2700893100E+03         1
       1       1  0.1000000000E-01        24    1        24        80  0.4999897597E+00  0.5000000007E+00  0.6999995045E+00  0.9749994880E+04  0.8750000000E+04  0.2901251002E+03         1
       1       1  0.1000000000E-01        25    1        25        80  0.4999897597E+00  0.5000000007E+00  0.8999998348E+00  0.9749994880E+04  0.8750000000E+04  0.3101608904E+03         1
       1       1  0.1000000000E-01        26    1        26       100  0.4999897660E+00  0.5000000008E+00  0.9999851553E-01  0.9749994883E+04  0.8250000000E+04  0.2300177187E+03         1
       1       1  0.1000000000E-01        27    1        27       100  0.4999897660E+00  0.5000000008E+00  0.2999988454E+00  0.9749994883E+04  0.8250000000E+04  0.2500534866E+03         1
       1       1  0.1000000000E-01        28    1        28       100  0.4999897660E+00  0.5000000008E+00  0.4999991753E+00  0.9749994883E+04  0.8250000000E+04  0.2700892545E+03         1
       1       1  0.1000000000E-01        29    1        29       100  0.4999897660E+00  0.5000000008E+00  0.6999995052E+00  0.9749994883E+04  0.8250000000E+04  0.2901250225E+03         1
       1       1  0.1000000000E-01        30    1        30       100  0.4999897660E+00  0.5000000008E+00  0.8999998351E+00  0.9749994883E+04  0.8250000000E+04  0.3101607904E+03         1
       1       1  0.1000000000E-01        31    1        31       120  0.4999897730E+00  0.5000000008E+00  0.9999851770E-01  0.9749994887E+04  0.7750000000E+04  0.2300177067E+03         1
       1       1  0.1000000000E-01        32    1        32       120  0.4999897730E+00  0.5000000008E+00  0.2999988471E+00  0.9749994887E+04  0.7750000000E+04  0.2500534500E+03         1
       1       1  0.1000000000E-01        33    1        33       120  0.4999897730E+00  0.5000000008E+00  0.4999991765E+00  0.9749994887E+04  0.7750000000E+04  0.2700891933E+03         1
       1       1  0.1000000000E-01        34    1        34       120  0.4999897730E+00  0.5000000008E+00  0.6999995059E+00  0.9749994887E+04  0.7750000000E+04  0.2901249366E+03         1
       1       1  0.1000000000E-01        35    1        35       120  0.4999897730E+00  0.5000000008E+00  0.8999998353E+00  0.9749994887E+04  0.7750000000E+04  0.3101606799E+03         1
       1       1  0.1000000000E-01        36    1        36       140  0.4999897801E+00  0.5000000008E+00  0.9999851989E-01  0.9749994890E+04  0.7250000000E+04  0.2300176945E+03         1
       1       1  0.1000000000E-01        37    1        37       140  0.4999897801E+00  0.5000000008E+00  0.2999988488E+00  0.9749994890E+04  0.7250000000E+04  0.2500534130E+03         1
       1       1  0.1000000000E-01        38    1        38       140  0.4999897801E+00  0.5000000008E+00  0.4999991777E+00  0.9749994890E+04  0.7250000000E+04  0.2700891315E+03         1
       1       1  0.1000000000E-01        39    1        39       140  0.4999897801E+00  0.5000000008E+00  0.6999995066E+00  0.9749994890E+04  0.7250000000E+04  0.2901248500E+03         1
       1       1  0.1000000000E-01        40    1        40       140  0.4999897801E+00  0.5000000008E+00  0.8999998355E+00  0.9749994890E+04  0.7250000000E+04  0.3101605684E+03         1
       1       1  0.1000000000E-01        41    1        41       160  0.4999897865E+00  0.5000000007E+00  0.9999852189E-01  0.9749994893E+04  0.6750000000E+04  0.2300176833E+03         1
       1       1  0.1000000000E-01        42    1        42       160  0.4999897865E+00  0.5000000007E+00  0.2999988504E+00  0.9749994893E+04  0.6750000000E+04  0.2500533791E+03         1
       1       1  0.1000000000E-01        43    1        43       160  0.4999897865E+00  0.5000000007E+00  0.4999991788E+00  0.9749994893E+04  0.6750000000E+04  0.2700890748E+03         1
       1       1  0.1000000000E-01        44    1        44       160  0.4999897865E+00  0.5000000007E+00  0.6999995073E+00  0.9749994893E+04  0.6750000000E+04  0.2901247705E+03         1
       1       1  0.1000000000E-01        45    1        45       160  0.4999897865E+00  0.5000000007E+00  0.8999998358E+00  0.9749994893E+04  0.6750000000E+04  0.3101604662E+03         1
       1       1  0.1000000000E-01        46    1        46       180  0.4999897918E+00  0.5000000005E+00  0.9999852351E-01  0.9749994896E+04  0.6250000000E+04  0.2300176743E+03         1
       1       1  0.1000000000E-01        47    1        47       180  0.4999897918E+00  0.5000000005E+00  0.2999988516E+00  0.9749994896E+04  0.6250000000E+04  0.2500533516E+03         1
       1       1  0.1000000000E-01        48    1        48       180  0.4999897918E+00  0.5000000005E+00  0.4999991797E+00  0.9749994896E+04  0.6250000000E+04  0.2700890290E+03         1