# File generated by Flopy version 3.9.1 on 05/15/2025 at 08:36:57.
BEGIN options
  READASARRAYS
END options

BEGIN period  1
  recharge
    CONSTANT       0.00500000
END period  1

