# File generated by Flopy version 3.8.2 on 01/20/2025 at 14:11:03.
BEGIN options
  PRINT_FLOWS
  SAVE_FLOWS
END options

BEGIN packages
  NPF6  symp01.npf  npf
  ic6  symp01.ic  ic
  dis6  symp01.dis  dis
  riv6  symp01.riv  riv_0
  oc6  symp01.oc  oc
  RCH6  symp01.rcha  rch
END packages

