# File generated by Flopy version 3.9.1 on 03/31/2025 at 15:01:50.
BEGIN options
  READASARRAYS
END options

BEGIN period  1
  recharge
    CONSTANT       0.00400000
END period  1

