# File generated by Flopy version 3.9.1 on 03/31/2025 at 15:01:50.
BEGIN options
END options

BEGIN griddata
  strt
    CONSTANT       0.00000000
END griddata

