# File generated by Flopy version 3.9.1 on 02/17/2025 at 07:33:16.
BEGIN options
  PRINT_OPTION  summary
END options

BEGIN nonlinear
  OUTER_DVCLOSE  1.00000000E-08
END nonlinear

BEGIN linear
  INNER_DVCLOSE  1.00000000E-08
  LINEAR_ACCELERATION  bicgstab
END linear

