# File generated by Flopy version 3.9.1 on 02/17/2025 at 08:26:29.
BEGIN options
END options

BEGIN griddata
  strt
    CONSTANT       0.00000000
END griddata

