# GHB package for MODFLOW-2005 generated by Flopy 3.9.1
        20         0
        20         0 # stress period 1
         1         1         1            10.0          6000.0
         1         1        20             0.0          5000.0
         1         2         1            10.0          6000.0
         1         2        20             0.0          5000.0
         1         3         1            10.0          6000.0
         1         3        20             0.0          5000.0
         1         4         1            10.0          6000.0
         1         4        20             0.0          5000.0
         1         5         1            10.0          6000.0
         1         5        20             0.0          5000.0
         1         6         1            10.0          6000.0
         1         6        20             0.0          5000.0
         1         7         1            10.0          6000.0
         1         7        20             0.0          5000.0
         1         8         1            10.0          6000.0
         1         8        20             0.0          5000.0
         1         9         1            10.0          6000.0
         1         9        20             0.0          5000.0
         1        10         1            10.0          6000.0
         1        10        20             0.0          5000.0
        20         0 # stress period 2
         1         1         1            10.0          6000.0
         1         1        20             0.0          5000.0
         1         2         1            10.0          6000.0
         1         2        20             0.0          5000.0
         1         3         1            10.0          6000.0
         1         3        20             0.0          5000.0
         1         4         1            10.0          6000.0
         1         4        20             0.0          5000.0
         1         5         1            10.0          6000.0
         1         5        20             0.0          5000.0
         1         6         1            10.0          6000.0
         1         6        20             0.0          5000.0
         1         7         1            10.0          6000.0
         1         7        20             0.0          5000.0
         1         8         1            10.0          6000.0
         1         8        20             0.0          5000.0
         1         9         1            10.0          6000.0
         1         9        20             0.0          5000.0
         1        10         1            10.0          6000.0
         1        10        20             0.0          5000.0
        -1         0 # stress period 3
