# File generated by Flopy version 3.9.1 on 04/04/2025 at 16:18:34.
BEGIN options
  BUDGET  FILEOUT  gwt_p06-mf6.cbc
  CONCENTRATION  FILEOUT  gwt_p06-mf6.ucn
  CONCENTRATION  PRINT_FORMAT  COLUMNS  10  WIDTH  15  DIGITS  6  GENERAL
END options

BEGIN period  1
  SAVE  CONCENTRATION  ALL
  SAVE  BUDGET  ALL
  PRINT  CONCENTRATION  ALL
  PRINT  BUDGET  ALL
END period  1

