# File generated by Flopy version 3.9.1 on 07/16/2025 at 08:04:15.
BEGIN options
END options

BEGIN dimensions
  MAXBOUND  88
END dimensions

BEGIN period  1
  1 8 6 8.44444427E+01 3.63083377E+04
  1 9 6 8.44444427E+01 2.33134670E+03
  1 9 7 8.16666641E+01 3.37793919E+04
  1 9 8 7.88888855E+01 3.23459969E+04
  1 9 9 7.61111145E+01 3.18044818E+04
  1 9 10 7.33333359E+01 3.10199521E+04
  1 9 11 7.05555573E+01 3.18122023E+04
  1 9 12 7.00000000E+01 8.18127444E+02
  1 10 12 6.77777786E+01 3.38129726E+04
  1 10 13 6.66666641E+01 1.25280022E+04
  1 11 13 6.50000000E+01 3.53171006E+04
  1 11 14 6.44444427E+01 4.63777529E+02
  1 12 14 6.22222214E+01 3.56488689E+04
  1 12 24 3.44444427E+01 1.78565974E+04
  1 12 25 3.18663578E+01 8.81784156E+03
  1 12 30 1.77777786E+01 1.34416454E+04
  1 12 31 1.50000000E+01 1.42845107E+04
  1 12 32 1.22222223E+01 1.35347344E+04
  1 12 33 1.05555563E+01 6.94217554E+03
  1 13 14 6.22222214E+01 6.58430698E+03
  1 13 15 5.94444427E+01 2.85528019E+04
  1 13 16 5.66666679E+01 2.62080602E+04
  1 13 17 5.38888893E+01 2.51867920E+04
  1 13 18 5.11111107E+01 2.47044993E+04
  1 13 19 4.83333321E+01 2.38295268E+04
  1 13 20 4.55555573E+01 2.28888763E+04
  1 13 21 4.27777786E+01 2.20904756E+04
  1 13 22 4.00000000E+01 2.14149942E+04
  1 13 23 3.72222214E+01 2.07068764E+04
  1 13 24 3.61549606E+01 1.90928234E+03
  1 13 25 3.16666679E+01 1.02229331E+04
  1 13 26 2.88888893E+01 1.82242890E+04
  1 13 27 2.61111107E+01 1.73931825E+04
  1 13 28 2.33333321E+01 1.66271551E+04
  1 13 29 2.05555553E+01 1.58670611E+04
  1 13 30 2.00000000E+01 1.69978206E+03
  1 13 33 9.44444466E+00 6.00699616E+03
  1 13 34 6.66666651E+00 1.23466489E+04
  1 13 35 3.88888884E+00 1.17319741E+04
  1 13 36 1.11111104E+00 1.04788442E+04
  1 13 37 3.64044738E+00 9.62218555E+03
  1 13 11 7.05555573E+01 1.57454081E+04
  1 13 12 6.77777786E+01 2.95757994E+04
  1 13 13 6.50000000E+01 2.84832463E+04
  1 13 14 6.22222214E+01 2.89514346E+04
  1 13 15 5.94444427E+01 1.49662103E+03
  1 14 8 7.88888855E+01 1.47679933E+04
  1 14 9 7.61111145E+01 3.34673180E+04
  1 14 10 7.33333359E+01 3.19877306E+04
  1 14 11 7.11855850E+01 1.49273678E+04
  1 15 6 8.44444427E+01 1.97898907E+04
  1 15 7 8.16666641E+01 3.64460776E+04
  1 15 8 7.96304092E+01 2.18392358E+04
  1 16 6 8.53349686E+01 8.32035942E+03
  1 13 21 4.27777786E+01 2.49101053E+04
  1 13 22 4.00000000E+01 4.09860131E+03
  1 14 20 4.55555573E+01 2.58261190E+04
  1 14 21 4.50000000E+01 3.70585975E+03
  1 15 18 5.11111107E+01 1.54260264E+04
  1 15 19 4.83333321E+01 2.69250691E+04
  1 15 20 4.72222214E+01 7.13920629E+03
  1 16 16 5.66666679E+01 2.58845903E+04
  1 16 17 5.38888893E+01 2.68458517E+04
  1 16 18 5.22222214E+01 1.23181562E+04
  1 17 14 6.22222214E+01 2.38537289E+04
  1 17 15 5.94444427E+01 3.07110096E+04
  1 17 16 5.88888893E+01 2.80011806E+03
  1 18 13 6.50000000E+01 1.21088614E+04
  1 18 14 6.38888893E+01 6.72903328E+03
  1 6 17 5.38888893E+01 1.40131922E+04
  1 6 18 5.27777786E+01 1.26054452E+04
  1 7 18 5.11111107E+01 3.00084320E+04
  1 7 19 5.05555573E+01 5.79524224E+02
  1 8 19 4.94444427E+01 2.67925257E+04
  1 9 19 4.83333321E+01 1.71761689E+04
  1 9 20 4.55555573E+01 2.50848438E+04
  1 9 21 4.50000000E+01 5.18962780E+02
  1 10 21 4.27777786E+01 2.34960605E+04
  1 10 22 4.00000000E+01 2.20082768E+04
  1 10 23 3.72222214E+01 2.07335677E+04
  1 10 24 3.44444427E+01 2.01364529E+04
  1 10 25 3.38888893E+01 1.93806921E+02
  1 11 25 3.16666679E+01 2.05747725E+04
  1 11 26 2.94444447E+01 1.60697132E+04
  1 12 26 2.88888893E+01 7.46650125E+03
  1 12 27 2.61111107E+01 2.03380825E+04
  1 12 28 2.47823582E+01 5.76763566E+03
  1 13 28 2.33333321E+01 2.07634884E+03
END period  1

