# File generated by Flopy version 3.9.1 on 07/16/2025 at 08:04:15.
BEGIN options
  READASARRAYS
END options

BEGIN period  1
  recharge
    CONSTANT  1.00000000E-06
END period  1

