# File generated by Flopy version 3.9.1 on 07/16/2025 at 08:04:15.
BEGIN options
END options

BEGIN griddata
  iconvert
    CONSTANT  1
  ss
    CONSTANT  1.00000000E-05
  sy
    CONSTANT       0.20000000
END griddata

BEGIN period  1
  STEADY-STATE
END period  1

