# Name file for MT3DMS, generated by Flopy version 3.9.1.
LIST              16  p10_mt.list
FTL               10  mt3d_link.ftl 
BTN               31  p10_mt.btn
ADV               32  p10_mt.adv
DSP               33  p10_mt.dsp
SSM               34  p10_mt.ssm
RCT               36  p10_mt.rct
GCG               35  p10_mt.gcg
