# File generated by Flopy version 3.9.1 on 06/26/2025 at 10:48:07.
BEGIN options
END options

BEGIN griddata
  iconvert
    CONSTANT  0
  ss
    CONSTANT       0.00000000
  sy
    CONSTANT       0.00000000
END griddata

BEGIN period  1
  TRANSIENT
END period  1

