# File generated by Flopy version 3.8.2 on 06/20/2025 at 16:25:41.
BEGIN options
END options

BEGIN timing
  TDIS6  ex-gwf-csub-p02b.tdis
END timing

BEGIN models
  gwf6  ex-gwf-csub-p02b.nam  ex-gwf-csub-p02b
END models

BEGIN exchanges
END exchanges

BEGIN solutiongroup  1
  ims6  ex-gwf-csub-p02b.ims  ex-gwf-csub-p02b
END solutiongroup  1

