# File generated by Flopy version 3.9.1 on 03/10/2025 at 07:12:04.
BEGIN options
  SAVE_FLOWS
END options

BEGIN packages
  DIS6  gwt_p08_mf6.dis  dis
  IC6  gwt_p08_mf6.ic  ic
  ADV6  gwt_p08_mf6.adv  adv
  DSP6  gwt_p08_mf6.dsp  dsp
  MST6  gwt_p08_mf6.mst  mst
  SSM6  gwt_p08_mf6.ssm  ssm
  OC6  gwt_p08_mf6.oc  oc
  CNC6  gwt_p08_mf6.cnc  cnc-1
END packages

