# File generated by Flopy version 3.9.1 on 02/27/2025 at 14:37:42.
BEGIN options
END options

BEGIN griddata
  alh
    CONSTANT       0.50000000
  ath1
    CONSTANT       0.00500000
  atv
    CONSTANT       0.00500000
END griddata

