# sgn_50 model version 0.post16.dev0+ge733124
# File generated by Flopy version 3.10.0.dev1 on 02/01/2025 at 06:12:19.
# via modflow-setup version 0.6.0 at 2025-02-01 06:12:19
BEGIN options
  BOUNDNAMES
END options

BEGIN dimensions
  MAXBOUND  708
END dimensions

BEGIN period  1
  1 1 1 1.02051956E+02 1.00000000E+02 GHB1
  3 1 1 1.02051956E+02 1.00000000E+02 GHB3
  1 1 2 1.02056931E+02 1.00000000E+02 GHB1
  3 1 2 1.02056931E+02 1.00000000E+02 GHB3
  1 1 3 1.02092110E+02 1.00000000E+02 GHB1
  3 1 3 1.02092110E+02 1.00000000E+02 GHB3
  1 1 4 1.02098053E+02 1.00000000E+02 GHB1
  3 1 4 1.02098053E+02 1.00000000E+02 GHB3
  1 1 5 1.02104202E+02 1.00000000E+02 GHB1
  3 1 5 1.02104202E+02 1.00000000E+02 GHB3
  1 1 6 1.02110519E+02 1.00000000E+02 GHB1
  3 1 6 1.02110519E+02 1.00000000E+02 GHB3
  1 1 7 1.02149315E+02 1.00000000E+02 GHB1
  3 1 7 1.02149315E+02 1.00000000E+02 GHB3
  1 1 8 1.02156662E+02 1.00000000E+02 GHB1
  3 1 8 1.02156662E+02 1.00000000E+02 GHB3
  1 1 9 1.02164169E+02 1.00000000E+02 GHB1
  3 1 9 1.02164169E+02 1.00000000E+02 GHB3
  1 1 10 1.02171806E+02 1.00000000E+02 GHB1
  3 1 10 1.02171806E+02 1.00000000E+02 GHB3
  1 1 11 1.02214661E+02 1.00000000E+02 GHB1
  3 1 11 1.02214661E+02 1.00000000E+02 GHB3
  1 1 12 1.02223358E+02 1.00000000E+02 GHB1
  3 1 12 1.02223358E+02 1.00000000E+02 GHB3
  1 1 13 1.02232079E+02 1.00000000E+02 GHB1
  3 1 13 1.02232079E+02 1.00000000E+02 GHB3
  1 1 14 1.02240715E+02 1.00000000E+02 GHB1
  3 1 14 1.02240715E+02 1.00000000E+02 GHB3
  1 1 15 1.02249161E+02 1.00000000E+02 GHB1
  3 1 15 1.02249161E+02 1.00000000E+02 GHB3
  1 1 16 1.02287735E+02 1.00000000E+02 GHB1
  3 1 16 1.02287735E+02 1.00000000E+02 GHB3
  1 1 17 1.02296783E+02 1.00000000E+02 GHB1
  3 1 17 1.02296783E+02 1.00000000E+02 GHB3
  1 1 18 1.02305244E+02 1.00000000E+02 GHB1
  3 1 18 1.02305244E+02 1.00000000E+02 GHB3
  1 1 19 1.02313065E+02 1.00000000E+02 GHB1
  3 1 19 1.02313065E+02 1.00000000E+02 GHB3
  1 1 20 1.02360649E+02 1.00000000E+02 GHB1
  3 1 20 1.02360649E+02 1.00000000E+02 GHB3
  1 1 21 1.02367599E+02 1.00000000E+02 GHB1
  3 1 21 1.02367599E+02 1.00000000E+02 GHB3
  1 1 22 1.02374519E+02 1.00000000E+02 GHB1
  3 1 22 1.02374519E+02 1.00000000E+02 GHB3
  1 1 23 1.02381699E+02 1.00000000E+02 GHB1
  3 1 23 1.02381699E+02 1.00000000E+02 GHB3
  1 1 24 1.02428131E+02 1.00000000E+02 GHB1
  3 1 24 1.02428131E+02 1.00000000E+02 GHB3
  1 1 25 1.02436363E+02 1.00000000E+02 GHB1
  3 1 25 1.02436363E+02 1.00000000E+02 GHB3
  1 1 26 1.02445251E+02 1.00000000E+02 GHB1
  3 1 26 1.02445251E+02 1.00000000E+02 GHB3
  1 1 27 1.02454819E+02 1.00000000E+02 GHB1
  3 1 27 1.02454819E+02 1.00000000E+02 GHB3
  1 1 28 1.02502800E+02 1.00000000E+02 GHB1
  3 1 28 1.02502800E+02 1.00000000E+02 GHB3
  1 1 29 1.02513832E+02 1.00000000E+02 GHB1
  3 1 29 1.02513832E+02 1.00000000E+02 GHB3
  1 1 30 1.02525475E+02 1.00000000E+02 GHB1
  3 1 30 1.02525475E+02 1.00000000E+02 GHB3
  1 1 31 1.02537697E+02 1.00000000E+02 GHB1
  3 1 31 1.02537697E+02 1.00000000E+02 GHB3
  1 1 32 1.02587471E+02 1.00000000E+02 GHB1
  3 1 32 1.02587471E+02 1.00000000E+02 GHB3
  1 1 33 1.02600899E+02 1.00000000E+02 GHB1
  3 1 33 1.02600899E+02 1.00000000E+02 GHB3
  1 1 34 1.02614754E+02 1.00000000E+02 GHB1
  3 1 34 1.02614754E+02 1.00000000E+02 GHB3
  1 1 35 1.02628960E+02 1.00000000E+02 GHB1
  3 1 35 1.02628960E+02 1.00000000E+02 GHB3
  1 1 36 1.02680115E+02 1.00000000E+02 GHB1
  3 1 36 1.02680115E+02 1.00000000E+02 GHB3
  1 1 37 1.02695198E+02 1.00000000E+02 GHB1
  3 1 37 1.02695198E+02 1.00000000E+02 GHB3
  1 1 38 1.02710457E+02 1.00000000E+02 GHB1
  3 1 38 1.02710457E+02 1.00000000E+02 GHB3
  1 1 39 1.02725800E+02 1.00000000E+02 GHB1
  3 1 39 1.02725800E+02 1.00000000E+02 GHB3
  1 1 40 1.02741104E+02 1.00000000E+02 GHB1
  3 1 40 1.02741104E+02 1.00000000E+02 GHB3
  1 1 41 1.02793930E+02 1.00000000E+02 GHB1
  3 1 41 1.02793930E+02 1.00000000E+02 GHB3
  1 1 42 1.02809624E+02 1.00000000E+02 GHB1
  3 1 42 1.02809624E+02 1.00000000E+02 GHB3
  1 1 43 1.02824936E+02 1.00000000E+02 GHB1
  3 1 43 1.02824936E+02 1.00000000E+02 GHB3
  1 1 44 1.02839638E+02 1.00000000E+02 GHB1
  3 1 44 1.02839638E+02 1.00000000E+02 GHB3
  1 1 45 1.02893585E+02 1.00000000E+02 GHB1
  3 1 45 1.02893585E+02 1.00000000E+02 GHB3
  1 1 46 1.02907707E+02 1.00000000E+02 GHB1
  3 1 46 1.02907707E+02 1.00000000E+02 GHB3
  1 1 47 1.02920059E+02 1.00000000E+02 GHB1
  3 1 47 1.02920059E+02 1.00000000E+02 GHB3
  1 1 48 1.02929688E+02 1.00000000E+02 GHB1
  3 1 48 1.02929688E+02 1.00000000E+02 GHB3
  1 1 49 1.02982399E+02 1.00000000E+02 GHB1
  3 1 49 1.02982399E+02 1.00000000E+02 GHB3
  1 1 50 1.02982399E+02 1.00000000E+02 GHB1
  3 1 50 1.02982399E+02 1.00000000E+02 GHB3
  1 1 51 1.02984131E+02 1.00000000E+02 GHB1
  3 1 51 1.02984131E+02 1.00000000E+02 GHB3
  1 1 52 1.02977333E+02 1.00000000E+02 GHB1
  3 1 52 1.02977333E+02 1.00000000E+02 GHB3
  1 1 53 1.03006027E+02 1.00000000E+02 GHB1
  3 1 53 1.03006027E+02 1.00000000E+02 GHB3
  1 1 54 1.02981140E+02 1.00000000E+02 GHB1
  3 1 54 1.02981140E+02 1.00000000E+02 GHB3
  1 1 55 1.02953629E+02 1.00000000E+02 GHB1
  3 1 55 1.02953629E+02 1.00000000E+02 GHB3
  1 1 56 1.02924881E+02 1.00000000E+02 GHB1
  3 1 56 1.02924881E+02 1.00000000E+02 GHB3
  1 1 57 1.02923409E+02 1.00000000E+02 GHB1
  3 1 57 1.02923409E+02 1.00000000E+02 GHB3
  1 1 58 1.02892662E+02 1.00000000E+02 GHB1
  3 1 58 1.02892662E+02 1.00000000E+02 GHB3
  1 1 59 1.02861893E+02 1.00000000E+02 GHB1
  3 1 59 1.02861893E+02 1.00000000E+02 GHB3
  1 1 60 1.02831108E+02 1.00000000E+02 GHB1
  3 1 60 1.02831108E+02 1.00000000E+02 GHB3
  1 1 61 1.02800308E+02 1.00000000E+02 GHB1
  3 1 61 1.02800308E+02 1.00000000E+02 GHB3
  1 1 62 1.02791901E+02 1.00000000E+02 GHB1
  3 1 62 1.02791901E+02 1.00000000E+02 GHB3
  1 1 63 1.02760925E+02 1.00000000E+02 GHB1
  3 1 63 1.02760925E+02 1.00000000E+02 GHB3
  1 1 64 1.02729942E+02 1.00000000E+02 GHB1
  3 1 64 1.02729942E+02 1.00000000E+02 GHB3
  1 1 65 1.02698936E+02 1.00000000E+02 GHB1
  3 1 65 1.02698936E+02 1.00000000E+02 GHB3
  1 1 66 1.02667915E+02 1.00000000E+02 GHB1
  3 1 66 1.02667915E+02 1.00000000E+02 GHB3
  1 1 67 1.02636864E+02 1.00000000E+02 GHB1
  3 1 67 1.02636864E+02 1.00000000E+02 GHB3
  1 1 68 1.02605782E+02 1.00000000E+02 GHB1
  3 1 68 1.02605782E+02 1.00000000E+02 GHB3
  1 1 69 1.02574661E+02 1.00000000E+02 GHB1
  3 1 69 1.02574661E+02 1.00000000E+02 GHB3
  1 1 70 1.02543503E+02 1.00000000E+02 GHB1
  3 1 70 1.02543503E+02 1.00000000E+02 GHB3
  1 1 71 1.02512314E+02 1.00000000E+02 GHB1
  3 1 71 1.02512314E+02 1.00000000E+02 GHB3
  1 1 72 1.02481079E+02 1.00000000E+02 GHB1
  3 1 72 1.02481079E+02 1.00000000E+02 GHB3
  1 1 73 1.02449814E+02 1.00000000E+02 GHB1
  3 1 73 1.02449814E+02 1.00000000E+02 GHB3
  1 1 74 1.02418510E+02 1.00000000E+02 GHB1
  3 1 74 1.02418510E+02 1.00000000E+02 GHB3
  1 1 75 1.02387177E+02 1.00000000E+02 GHB1
  3 1 75 1.02387177E+02 1.00000000E+02 GHB3
  1 1 76 1.02355812E+02 1.00000000E+02 GHB1
  3 1 76 1.02355812E+02 1.00000000E+02 GHB3
  1 1 77 1.02324425E+02 1.00000000E+02 GHB1
  3 1 77 1.02324425E+02 1.00000000E+02 GHB3
  1 1 78 1.02293022E+02 1.00000000E+02 GHB1
  3 1 78 1.02293022E+02 1.00000000E+02 GHB3
  1 1 79 1.02261612E+02 1.00000000E+02 GHB1
  3 1 79 1.02261612E+02 1.00000000E+02 GHB3
  1 1 80 1.02230194E+02 1.00000000E+02 GHB1
  3 1 80 1.02230194E+02 1.00000000E+02 GHB3
  1 1 81 1.02198776E+02 1.00000000E+02 GHB1
  3 1 81 1.02198776E+02 1.00000000E+02 GHB3
  1 1 82 1.02167381E+02 1.00000000E+02 GHB1
  3 1 82 1.02167381E+02 1.00000000E+02 GHB3
  1 1 83 1.02167381E+02 1.00000000E+02 GHB1
  3 1 83 1.02167381E+02 1.00000000E+02 GHB3
  1 2 1 1.02022919E+02 1.00000000E+02 GHB1
  3 2 1 1.02022919E+02 1.00000000E+02 GHB3
  1 2 83 1.02136002E+02 1.00000000E+02 GHB1
  3 2 83 1.02136002E+02 1.00000000E+02 GHB3
  1 3 1 1.01993790E+02 1.00000000E+02 GHB1
  3 3 1 1.01993790E+02 1.00000000E+02 GHB3
  1 3 83 1.02136002E+02 1.00000000E+02 GHB1
  3 3 83 1.02136002E+02 1.00000000E+02 GHB3
  1 4 1 1.01967918E+02 1.00000000E+02 GHB1
  3 4 1 1.01967918E+02 1.00000000E+02 GHB3
  1 4 83 1.02136002E+02 1.00000000E+02 GHB1
  3 4 83 1.02136002E+02 1.00000000E+02 GHB3
  1 5 1 1.01938202E+02 1.00000000E+02 GHB1
  3 5 1 1.01938202E+02 1.00000000E+02 GHB3
  1 5 83 1.02136002E+02 1.00000000E+02 GHB1
  3 5 83 1.02136002E+02 1.00000000E+02 GHB3
  1 6 1 1.01908531E+02 1.00000000E+02 GHB1
  3 6 1 1.01908531E+02 1.00000000E+02 GHB3
  1 6 83 1.02104652E+02 1.00000000E+02 GHB1
  3 6 83 1.02104652E+02 1.00000000E+02 GHB3
  1 7 1 1.01878960E+02 1.00000000E+02 GHB1
  3 7 1 1.01878960E+02 1.00000000E+02 GHB3
  1 7 83 1.02081726E+02 1.00000000E+02 GHB1
  3 7 83 1.02081726E+02 1.00000000E+02 GHB3
  1 8 1 1.01851021E+02 1.00000000E+02 GHB1
  3 8 1 1.01851021E+02 1.00000000E+02 GHB3
  1 8 83 1.02058075E+02 1.00000000E+02 GHB1
  3 8 83 1.02058075E+02 1.00000000E+02 GHB3
  1 9 1 1.01821350E+02 1.00000000E+02 GHB1
  3 9 1 1.01821350E+02 1.00000000E+02 GHB3
  1 9 83 1.02033691E+02 1.00000000E+02 GHB1
  3 9 83 1.02033691E+02 1.00000000E+02 GHB3
  1 10 1 1.01791924E+02 1.00000000E+02 GHB1
  3 10 1 1.01791924E+02 1.00000000E+02 GHB3
  1 10 83 1.01976814E+02 1.00000000E+02 GHB1
  3 10 83 1.01976814E+02 1.00000000E+02 GHB3
  1 11 1 1.01791924E+02 1.00000000E+02 GHB1
  3 11 1 1.01791924E+02 1.00000000E+02 GHB3
  1 11 83 1.01950905E+02 1.00000000E+02 GHB1
  3 11 83 1.01950905E+02 1.00000000E+02 GHB3
  1 12 1 1.01763458E+02 1.00000000E+02 GHB1
  3 12 1 1.01763458E+02 1.00000000E+02 GHB3
  1 12 83 1.01924301E+02 1.00000000E+02 GHB1
  3 12 83 1.01924301E+02 1.00000000E+02 GHB3
  1 13 1 1.01734451E+02 1.00000000E+02 GHB1
  3 13 1 1.01734451E+02 1.00000000E+02 GHB3
  1 13 83 1.01897003E+02 1.00000000E+02 GHB1
  3 13 83 1.01897003E+02 1.00000000E+02 GHB3
  1 14 1 1.01705856E+02 1.00000000E+02 GHB1
  3 14 1 1.01705856E+02 1.00000000E+02 GHB3
  1 14 83 1.01836952E+02 1.00000000E+02 GHB1
  3 14 83 1.01836952E+02 1.00000000E+02 GHB3
  1 15 1 1.01677719E+02 1.00000000E+02 GHB1
  3 15 1 1.01677719E+02 1.00000000E+02 GHB3
  1 15 83 1.01808228E+02 1.00000000E+02 GHB1
  3 15 83 1.01808228E+02 1.00000000E+02 GHB3
  1 16 1 1.01650909E+02 1.00000000E+02 GHB1
  3 16 1 1.01650909E+02 1.00000000E+02 GHB3
  1 16 83 1.01778847E+02 1.00000000E+02 GHB1
  3 16 83 1.01778847E+02 1.00000000E+02 GHB3
  1 17 1 1.01624100E+02 1.00000000E+02 GHB1
  3 17 1 1.01624100E+02 1.00000000E+02 GHB3
  1 17 83 1.01748802E+02 1.00000000E+02 GHB1
  3 17 83 1.01748802E+02 1.00000000E+02 GHB3
  1 18 1 1.01598038E+02 1.00000000E+02 GHB1
  3 18 1 1.01598038E+02 1.00000000E+02 GHB3
  1 18 83 1.01685768E+02 1.00000000E+02 GHB1
  3 18 83 1.01685768E+02 1.00000000E+02 GHB3
  1 19 1 1.01572838E+02 1.00000000E+02 GHB1
  3 19 1 1.01572838E+02 1.00000000E+02 GHB3
  1 19 83 1.01654358E+02 1.00000000E+02 GHB1
  3 19 83 1.01654358E+02 1.00000000E+02 GHB3
  1 20 1 1.01551239E+02 1.00000000E+02 GHB1
  3 20 1 1.01551239E+02 1.00000000E+02 GHB3
  1 20 83 1.01654358E+02 1.00000000E+02 GHB1
  3 20 83 1.01654358E+02 1.00000000E+02 GHB3
  1 21 1 1.01528748E+02 1.00000000E+02 GHB1
  3 21 1 1.01528748E+02 1.00000000E+02 GHB3
  1 21 83 1.01622314E+02 1.00000000E+02 GHB1
  3 21 83 1.01622314E+02 1.00000000E+02 GHB3
  1 22 1 1.01507568E+02 1.00000000E+02 GHB1
  3 22 1 1.01507568E+02 1.00000000E+02 GHB3
  1 22 83 1.01557007E+02 1.00000000E+02 GHB1
  3 22 83 1.01557007E+02 1.00000000E+02 GHB3
  1 23 1 1.01487816E+02 1.00000000E+02 GHB1
  3 23 1 1.01487816E+02 1.00000000E+02 GHB3
  1 23 83 1.01523598E+02 1.00000000E+02 GHB1
  3 23 83 1.01523598E+02 1.00000000E+02 GHB3
  1 24 1 1.01469536E+02 1.00000000E+02 GHB1
  3 24 1 1.01469536E+02 1.00000000E+02 GHB3
  1 24 83 1.01489540E+02 1.00000000E+02 GHB1
  3 24 83 1.01489540E+02 1.00000000E+02 GHB3
  1 25 1 1.01456184E+02 1.00000000E+02 GHB1
  3 25 1 1.01456184E+02 1.00000000E+02 GHB3
  1 25 83 1.01454834E+02 1.00000000E+02 GHB1
  3 25 83 1.01454834E+02 1.00000000E+02 GHB3
  1 26 1 1.01440323E+02 1.00000000E+02 GHB1
  3 26 1 1.01440323E+02 1.00000000E+02 GHB3
  1 26 83 1.01386391E+02 1.00000000E+02 GHB1
  3 26 83 1.01386391E+02 1.00000000E+02 GHB3
  1 27 1 1.01425369E+02 1.00000000E+02 GHB1
  3 27 1 1.01425369E+02 1.00000000E+02 GHB3
  1 27 83 1.01350243E+02 1.00000000E+02 GHB1
  3 27 83 1.01350243E+02 1.00000000E+02 GHB3
  1 28 1 1.01411102E+02 1.00000000E+02 GHB1
  3 28 1 1.01411102E+02 1.00000000E+02 GHB3
  1 28 83 1.01313416E+02 1.00000000E+02 GHB1
  3 28 83 1.01313416E+02 1.00000000E+02 GHB3
  1 29 1 1.01399330E+02 1.00000000E+02 GHB1
  3 29 1 1.01399330E+02 1.00000000E+02 GHB3
  1 29 83 1.01275894E+02 1.00000000E+02 GHB1
  3 29 83 1.01275894E+02 1.00000000E+02 GHB3
  1 30 1 1.01385254E+02 1.00000000E+02 GHB1
  3 30 1 1.01385254E+02 1.00000000E+02 GHB3
  1 30 83 1.01204033E+02 1.00000000E+02 GHB1
  3 30 83 1.01204033E+02 1.00000000E+02 GHB3
  1 31 1 1.01371140E+02 1.00000000E+02 GHB1
  3 31 1 1.01371140E+02 1.00000000E+02 GHB3
  1 31 83 1.01164917E+02 1.00000000E+02 GHB1
  3 31 83 1.01164917E+02 1.00000000E+02 GHB3
  1 32 1 1.01356781E+02 1.00000000E+02 GHB1
  3 32 1 1.01356781E+02 1.00000000E+02 GHB3
  1 32 83 1.01125053E+02 1.00000000E+02 GHB1
  3 32 83 1.01125053E+02 1.00000000E+02 GHB3
  1 33 1 1.01342636E+02 1.00000000E+02 GHB1
  3 33 1 1.01342636E+02 1.00000000E+02 GHB3
  1 33 83 1.01084412E+02 1.00000000E+02 GHB1
  3 33 83 1.01084412E+02 1.00000000E+02 GHB3
  1 34 1 1.01326767E+02 1.00000000E+02 GHB1
  3 34 1 1.01326767E+02 1.00000000E+02 GHB3
  1 34 83 1.01042976E+02 1.00000000E+02 GHB1
  3 34 83 1.01042976E+02 1.00000000E+02 GHB3
  1 35 1 1.01310112E+02 1.00000000E+02 GHB1
  3 35 1 1.01310112E+02 1.00000000E+02 GHB3
  1 35 83 1.00966408E+02 1.00000000E+02 GHB1
  3 35 83 1.00966408E+02 1.00000000E+02 GHB3
  1 36 1 1.01292526E+02 1.00000000E+02 GHB1
  3 36 1 1.01292526E+02 1.00000000E+02 GHB3
  1 36 83 1.00923141E+02 1.00000000E+02 GHB1
  3 36 83 1.00923141E+02 1.00000000E+02 GHB3
  1 37 1 1.01292175E+02 1.00000000E+02 GHB1
  3 37 1 1.01292175E+02 1.00000000E+02 GHB3
  1 37 83 1.00878998E+02 1.00000000E+02 GHB1
  3 37 83 1.00878998E+02 1.00000000E+02 GHB3
  1 38 1 1.01272865E+02 1.00000000E+02 GHB1
  3 38 1 1.01272865E+02 1.00000000E+02 GHB3
  1 38 83 1.00833954E+02 1.00000000E+02 GHB1
  3 38 83 1.00833954E+02 1.00000000E+02 GHB3
  1 39 1 1.01252296E+02 1.00000000E+02 GHB1
  3 39 1 1.01252296E+02 1.00000000E+02 GHB3
  1 39 83 1.00753502E+02 1.00000000E+02 GHB1
  3 39 83 1.00753502E+02 1.00000000E+02 GHB3
  1 40 1 1.01230385E+02 1.00000000E+02 GHB1
  3 40 1 1.01230385E+02 1.00000000E+02 GHB3
  1 40 83 1.00706505E+02 1.00000000E+02 GHB1
  3 40 83 1.00706505E+02 1.00000000E+02 GHB3
  1 41 1 1.01204170E+02 1.00000000E+02 GHB1
  3 41 1 1.01204170E+02 1.00000000E+02 GHB3
  1 41 83 1.00658554E+02 1.00000000E+02 GHB1
  3 41 83 1.00658554E+02 1.00000000E+02 GHB3
  1 42 1 1.01178200E+02 1.00000000E+02 GHB1
  3 42 1 1.01178200E+02 1.00000000E+02 GHB3
  1 42 83 1.00609627E+02 1.00000000E+02 GHB1
  3 42 83 1.00609627E+02 1.00000000E+02 GHB3
  1 43 1 1.01150635E+02 1.00000000E+02 GHB1
  3 43 1 1.01150635E+02 1.00000000E+02 GHB3
  1 43 83 1.00525620E+02 1.00000000E+02 GHB1
  3 43 83 1.00525620E+02 1.00000000E+02 GHB3
  1 44 1 1.01121521E+02 1.00000000E+02 GHB1
  3 44 1 1.01121521E+02 1.00000000E+02 GHB3
  1 44 83 1.00474770E+02 1.00000000E+02 GHB1
  3 44 83 1.00474770E+02 1.00000000E+02 GHB3
  1 45 1 1.01083008E+02 1.00000000E+02 GHB1
  3 45 1 1.01083008E+02 1.00000000E+02 GHB3
  1 45 83 1.00422943E+02 1.00000000E+02 GHB1
  3 45 83 1.00422943E+02 1.00000000E+02 GHB3
  1 46 1 1.01049141E+02 1.00000000E+02 GHB1
  3 46 1 1.01049141E+02 1.00000000E+02 GHB3
  1 46 83 1.00422943E+02 1.00000000E+02 GHB1
  3 46 83 1.00422943E+02 1.00000000E+02 GHB3
  1 47 1 1.01013992E+02 1.00000000E+02 GHB1
  3 47 1 1.01013992E+02 1.00000000E+02 GHB3
  1 47 83 1.00336929E+02 1.00000000E+02 GHB1
  3 47 83 1.00336929E+02 1.00000000E+02 GHB3
  1 48 1 1.00977837E+02 1.00000000E+02 GHB1
  3 48 1 1.00977837E+02 1.00000000E+02 GHB3
  1 48 83 1.00283340E+02 1.00000000E+02 GHB1
  3 48 83 1.00283340E+02 1.00000000E+02 GHB3
  1 49 1 1.00924576E+02 1.00000000E+02 GHB1
  3 49 1 1.00924576E+02 1.00000000E+02 GHB3
  1 49 83 1.00228821E+02 1.00000000E+02 GHB1
  3 49 83 1.00228821E+02 1.00000000E+02 GHB3
  1 50 1 1.00884834E+02 1.00000000E+02 GHB1
  3 50 1 1.00884834E+02 1.00000000E+02 GHB3
  1 50 83 1.00173378E+02 1.00000000E+02 GHB1
  3 50 83 1.00173378E+02 1.00000000E+02 GHB3
  1 51 1 1.00845322E+02 1.00000000E+02 GHB1
  3 51 1 1.00845322E+02 1.00000000E+02 GHB3
  1 51 83 1.00085403E+02 1.00000000E+02 GHB1
  3 51 83 1.00085403E+02 1.00000000E+02 GHB3
  1 52 1 1.00806664E+02 1.00000000E+02 GHB1
  3 52 1 1.00806664E+02 1.00000000E+02 GHB3
  1 52 83 1.00028519E+02 1.00000000E+02 GHB1
  3 52 83 1.00028519E+02 1.00000000E+02 GHB3
  1 53 1 1.00742920E+02 1.00000000E+02 GHB1
  3 53 1 1.00742920E+02 1.00000000E+02 GHB3
  1 53 83 9.99708023E+01 1.00000000E+02 GHB1
  3 53 83 9.99708023E+01 1.00000000E+02 GHB3
  1 54 1 1.00705811E+02 1.00000000E+02 GHB1
  3 54 1 1.00705811E+02 1.00000000E+02 GHB3
  1 54 83 9.99123001E+01 1.00000000E+02 GHB1
  3 54 83 9.99123001E+01 1.00000000E+02 GHB3
  1 55 1 1.00670517E+02 1.00000000E+02 GHB1
  3 55 1 1.00670517E+02 1.00000000E+02 GHB3
  1 55 83 9.98234711E+01 1.00000000E+02 GHB1
  3 55 83 9.98234711E+01 1.00000000E+02 GHB3
  1 56 1 1.00636429E+02 1.00000000E+02 GHB1
  3 56 1 1.00636429E+02 1.00000000E+02 GHB3
  1 56 83 9.97639008E+01 1.00000000E+02 GHB1
  3 56 83 9.97639008E+01 1.00000000E+02 GHB3
  1 57 1 1.00603119E+02 1.00000000E+02 GHB1
  3 57 1 1.00603119E+02 1.00000000E+02 GHB3
  1 57 83 9.97036591E+01 1.00000000E+02 GHB1
  3 57 83 9.97036591E+01 1.00000000E+02 GHB3
  1 58 1 1.00539886E+02 1.00000000E+02 GHB1
  3 58 1 1.00539886E+02 1.00000000E+02 GHB3
  1 58 83 9.96427765E+01 1.00000000E+02 GHB1
  3 58 83 9.96427765E+01 1.00000000E+02 GHB3
  1 59 1 1.00506691E+02 1.00000000E+02 GHB1
  3 59 1 1.00506691E+02 1.00000000E+02 GHB3
  1 59 83 9.95541153E+01 1.00000000E+02 GHB1
  3 59 83 9.95541153E+01 1.00000000E+02 GHB3
  1 60 1 1.00473770E+02 1.00000000E+02 GHB1
  3 60 1 1.00473770E+02 1.00000000E+02 GHB3
  1 60 83 9.94925385E+01 1.00000000E+02 GHB1
  3 60 83 9.94925385E+01 1.00000000E+02 GHB3
  1 61 1 1.00441116E+02 1.00000000E+02 GHB1
  3 61 1 1.00441116E+02 1.00000000E+02 GHB3
  1 61 83 9.94304428E+01 1.00000000E+02 GHB1
  3 61 83 9.94304428E+01 1.00000000E+02 GHB3
  1 62 1 1.00375587E+02 1.00000000E+02 GHB1
  3 62 1 1.00375587E+02 1.00000000E+02 GHB3
  1 62 83 9.93678665E+01 1.00000000E+02 GHB1
  3 62 83 9.93678665E+01 1.00000000E+02 GHB3
  1 63 1 1.00375587E+02 1.00000000E+02 GHB1
  3 63 1 1.00375587E+02 1.00000000E+02 GHB3
  1 63 83 9.93048477E+01 1.00000000E+02 GHB1
  3 63 83 9.93048477E+01 1.00000000E+02 GHB3
  1 64 1 1.00342842E+02 1.00000000E+02 GHB1
  3 64 1 1.00342842E+02 1.00000000E+02 GHB3
  1 64 83 9.92172012E+01 1.00000000E+02 GHB1
  3 64 83 9.92172012E+01 1.00000000E+02 GHB3
  1 65 1 1.00310379E+02 1.00000000E+02 GHB1
  3 65 1 1.00310379E+02 1.00000000E+02 GHB3
  1 65 83 9.91538544E+01 1.00000000E+02 GHB1
  3 65 83 9.91538544E+01 1.00000000E+02 GHB3
  1 66 1 1.00243614E+02 1.00000000E+02 GHB1
  3 66 1 1.00243614E+02 1.00000000E+02 GHB3
  1 66 83 9.90901566E+01 1.00000000E+02 GHB1
  3 66 83 9.90901566E+01 1.00000000E+02 GHB3
  1 67 1 1.00211380E+02 1.00000000E+02 GHB1
  3 67 1 1.00211380E+02 1.00000000E+02 GHB3
  1 67 83 9.90261307E+01 1.00000000E+02 GHB1
  3 67 83 9.90261307E+01 1.00000000E+02 GHB3
  1 68 1 1.00179459E+02 1.00000000E+02 GHB1
  3 68 1 1.00179459E+02 1.00000000E+02 GHB3
  1 68 83 9.89618073E+01 1.00000000E+02 GHB1
  3 68 83 9.89618073E+01 1.00000000E+02 GHB3
  1 69 1 1.00147804E+02 1.00000000E+02 GHB1
  3 69 1 1.00147804E+02 1.00000000E+02 GHB3
  1 69 83 9.88972168E+01 1.00000000E+02 GHB1
  3 69 83 9.88972168E+01 1.00000000E+02 GHB3
  1 70 1 1.00081070E+02 1.00000000E+02 GHB1
  3 70 1 1.00081070E+02 1.00000000E+02 GHB3
  1 70 83 9.88323746E+01 1.00000000E+02 GHB1
  3 70 83 9.88323746E+01 1.00000000E+02 GHB3
  1 71 1 1.00049911E+02 1.00000000E+02 GHB1
  3 71 1 1.00049911E+02 1.00000000E+02 GHB3
  1 71 83 9.87673111E+01 1.00000000E+02 GHB1
  3 71 83 9.87673111E+01 1.00000000E+02 GHB3
  1 72 1 1.00019012E+02 1.00000000E+02 GHB1
  3 72 1 1.00019012E+02 1.00000000E+02 GHB3
  1 72 83 9.87673111E+01 1.00000000E+02 GHB1
  3 72 83 9.87673111E+01 1.00000000E+02 GHB3
  1 73 1 9.99883499E+01 1.00000000E+02 GHB1
  3 73 1 9.99883499E+01 1.00000000E+02 GHB3
  1 73 83 9.87020493E+01 1.00000000E+02 GHB1
  3 73 83 9.87020493E+01 1.00000000E+02 GHB3
  1 74 1 9.99229050E+01 1.00000000E+02 GHB1
  3 74 1 9.99229050E+01 1.00000000E+02 GHB3
  1 74 83 9.86365891E+01 1.00000000E+02 GHB1
  3 74 83 9.86365891E+01 1.00000000E+02 GHB3
  1 75 1 9.98928680E+01 1.00000000E+02 GHB1
  3 75 1 9.98928680E+01 1.00000000E+02 GHB3
  1 75 83 9.85709686E+01 1.00000000E+02 GHB1
  3 75 83 9.85709686E+01 1.00000000E+02 GHB3
  1 76 1 9.98630524E+01 1.00000000E+02 GHB1
  3 76 1 9.98630524E+01 1.00000000E+02 GHB3
  1 76 83 9.85051956E+01 1.00000000E+02 GHB1
  3 76 83 9.85051956E+01 1.00000000E+02 GHB3
  1 77 1 9.98334503E+01 1.00000000E+02 GHB1
  3 77 1 9.98334503E+01 1.00000000E+02 GHB3
  1 77 83 9.84392853E+01 1.00000000E+02 GHB1
  3 77 83 9.84392853E+01 1.00000000E+02 GHB3
  1 78 1 9.97700119E+01 1.00000000E+02 GHB1
  3 78 1 9.97700119E+01 1.00000000E+02 GHB3
  1 78 83 9.83732376E+01 1.00000000E+02 GHB1
  3 78 83 9.83732376E+01 1.00000000E+02 GHB3
  1 79 1 9.97411194E+01 1.00000000E+02 GHB1
  3 79 1 9.97411194E+01 1.00000000E+02 GHB3
  1 79 83 9.83070831E+01 1.00000000E+02 GHB1
  3 79 83 9.83070831E+01 1.00000000E+02 GHB3
  1 80 1 9.97124405E+01 1.00000000E+02 GHB1
  3 80 1 9.97124405E+01 1.00000000E+02 GHB3
  1 80 83 9.82408142E+01 1.00000000E+02 GHB1
  3 80 83 9.82408142E+01 1.00000000E+02 GHB3
  1 81 1 9.96839905E+01 1.00000000E+02 GHB1
  3 81 1 9.96839905E+01 1.00000000E+02 GHB3
  1 81 83 9.81744461E+01 1.00000000E+02 GHB1
  3 81 83 9.81744461E+01 1.00000000E+02 GHB3
  1 82 1 9.96229172E+01 1.00000000E+02 GHB1
  3 82 1 9.96229172E+01 1.00000000E+02 GHB3
  1 82 83 9.81079941E+01 1.00000000E+02 GHB1
  3 82 83 9.81079941E+01 1.00000000E+02 GHB3
  1 83 1 9.95952377E+01 1.00000000E+02 GHB1
  3 83 1 9.95952377E+01 1.00000000E+02 GHB3
  1 83 83 9.80414505E+01 1.00000000E+02 GHB1
  3 83 83 9.80414505E+01 1.00000000E+02 GHB3
  1 84 1 9.95678101E+01 1.00000000E+02 GHB1
  3 84 1 9.95678101E+01 1.00000000E+02 GHB3
  1 84 83 9.79748306E+01 1.00000000E+02 GHB1
  3 84 83 9.79748306E+01 1.00000000E+02 GHB3
  1 85 1 9.95406342E+01 1.00000000E+02 GHB1
  3 85 1 9.95406342E+01 1.00000000E+02 GHB3
  1 85 83 9.79081421E+01 1.00000000E+02 GHB1
  3 85 83 9.79081421E+01 1.00000000E+02 GHB3
  1 86 1 9.95137253E+01 1.00000000E+02 GHB1
  3 86 1 9.95137253E+01 1.00000000E+02 GHB3
  1 86 83 9.78413773E+01 1.00000000E+02 GHB1
  3 86 83 9.78413773E+01 1.00000000E+02 GHB3
  1 87 1 9.94557266E+01 1.00000000E+02 GHB1
  3 87 1 9.94557266E+01 1.00000000E+02 GHB3
  1 87 83 9.77745590E+01 1.00000000E+02 GHB1
  3 87 83 9.77745590E+01 1.00000000E+02 GHB3
  1 88 1 9.94557266E+01 1.00000000E+02 GHB1
  3 88 1 9.94557266E+01 1.00000000E+02 GHB3
  1 88 83 9.77076797E+01 1.00000000E+02 GHB1
  3 88 83 9.77076797E+01 1.00000000E+02 GHB3
  1 89 1 9.94296722E+01 1.00000000E+02 GHB1
  3 89 1 9.94296722E+01 1.00000000E+02 GHB3
  1 89 83 9.76407547E+01 1.00000000E+02 GHB1
  3 89 83 9.76407547E+01 1.00000000E+02 GHB3
  1 90 1 9.94039230E+01 1.00000000E+02 GHB1
  3 90 1 9.94039230E+01 1.00000000E+02 GHB3
  1 90 83 9.75737839E+01 1.00000000E+02 GHB1
  3 90 83 9.75737839E+01 1.00000000E+02 GHB3
  1 91 1 9.93478622E+01 1.00000000E+02 GHB1
  3 91 1 9.93478622E+01 1.00000000E+02 GHB3
  1 91 83 9.75067825E+01 1.00000000E+02 GHB1
  3 91 83 9.75067825E+01 1.00000000E+02 GHB3
  1 92 1 9.93230057E+01 1.00000000E+02 GHB1
  3 92 1 9.93230057E+01 1.00000000E+02 GHB3
  1 92 83 9.74397659E+01 1.00000000E+02 GHB1
  3 92 83 9.74397659E+01 1.00000000E+02 GHB3
  1 93 1 9.92984619E+01 1.00000000E+02 GHB1
  3 93 1 9.92984619E+01 1.00000000E+02 GHB3
  1 93 83 9.73727493E+01 1.00000000E+02 GHB1
  3 93 83 9.73727493E+01 1.00000000E+02 GHB3
  1 94 1 9.92742538E+01 1.00000000E+02 GHB1
  3 94 1 9.92742538E+01 1.00000000E+02 GHB3
  1 94 83 9.73057785E+01 1.00000000E+02 GHB1
  3 94 83 9.73057785E+01 1.00000000E+02 GHB3
  1 95 1 9.92206650E+01 1.00000000E+02 GHB1
  3 95 1 9.92206650E+01 1.00000000E+02 GHB3
  1 95 83 9.72389221E+01 1.00000000E+02 GHB1
  3 95 83 9.72389221E+01 1.00000000E+02 GHB3
  1 96 1 9.92206650E+01 1.00000000E+02 GHB1
  3 96 1 9.92206650E+01 1.00000000E+02 GHB3
  1 96 2 9.91908340E+01 1.00000000E+02 GHB1
  3 96 2 9.91908340E+01 1.00000000E+02 GHB3
  1 96 3 9.91609039E+01 1.00000000E+02 GHB1
  3 96 3 9.91609039E+01 1.00000000E+02 GHB3
  1 96 4 9.91308899E+01 1.00000000E+02 GHB1
  3 96 4 9.91308899E+01 1.00000000E+02 GHB3
  1 96 5 9.91007919E+01 1.00000000E+02 GHB1
  3 96 5 9.91007919E+01 1.00000000E+02 GHB3
  1 96 6 9.90706329E+01 1.00000000E+02 GHB1
  3 96 6 9.90706329E+01 1.00000000E+02 GHB3
  1 96 7 9.90404129E+01 1.00000000E+02 GHB1
  3 96 7 9.90404129E+01 1.00000000E+02 GHB3
  1 96 8 9.90101471E+01 1.00000000E+02 GHB1
  3 96 8 9.90101471E+01 1.00000000E+02 GHB3
  1 96 9 9.90019226E+01 1.00000000E+02 GHB1
  3 96 9 9.90019226E+01 1.00000000E+02 GHB3
  1 96 10 9.89714355E+01 1.00000000E+02 GHB1
  3 96 10 9.89714355E+01 1.00000000E+02 GHB3
  1 96 11 9.89409256E+01 1.00000000E+02 GHB1
  3 96 11 9.89409256E+01 1.00000000E+02 GHB3
  1 96 12 9.89104004E+01 1.00000000E+02 GHB1
  3 96 12 9.89104004E+01 1.00000000E+02 GHB3
  1 96 13 9.89017944E+01 1.00000000E+02 GHB1
  3 96 13 9.89017944E+01 1.00000000E+02 GHB3
  1 96 14 9.88711472E+01 1.00000000E+02 GHB1
  3 96 14 9.88711472E+01 1.00000000E+02 GHB3
  1 96 15 9.88711472E+01 1.00000000E+02 GHB1
  3 96 15 9.88711472E+01 1.00000000E+02 GHB3
  1 96 16 9.88404999E+01 1.00000000E+02 GHB1
  3 96 16 9.88404999E+01 1.00000000E+02 GHB3
  1 96 17 9.88319397E+01 1.00000000E+02 GHB1
  3 96 17 9.88319397E+01 1.00000000E+02 GHB3
  1 96 18 9.88012161E+01 1.00000000E+02 GHB1
  3 96 18 9.88012161E+01 1.00000000E+02 GHB3
  1 96 19 9.87704849E+01 1.00000000E+02 GHB1
  3 96 19 9.87704849E+01 1.00000000E+02 GHB3
  1 96 20 9.87397232E+01 1.00000000E+02 GHB1
  3 96 20 9.87397232E+01 1.00000000E+02 GHB3
  1 96 21 9.87314148E+01 1.00000000E+02 GHB1
  3 96 21 9.87314148E+01 1.00000000E+02 GHB3
  1 96 22 9.87005844E+01 1.00000000E+02 GHB1
  3 96 22 9.87005844E+01 1.00000000E+02 GHB3
  1 96 23 9.86696930E+01 1.00000000E+02 GHB1
  3 96 23 9.86696930E+01 1.00000000E+02 GHB3
  1 96 24 9.86387100E+01 1.00000000E+02 GHB1
  3 96 24 9.86387100E+01 1.00000000E+02 GHB3
  1 96 25 9.86308289E+01 1.00000000E+02 GHB1
  3 96 25 9.86308289E+01 1.00000000E+02 GHB3
  1 96 26 9.85996857E+01 1.00000000E+02 GHB1
  3 96 26 9.85996857E+01 1.00000000E+02 GHB3
  1 96 27 9.85683823E+01 1.00000000E+02 GHB1
  3 96 27 9.85683823E+01 1.00000000E+02 GHB3
  1 96 28 9.85369186E+01 1.00000000E+02 GHB1
  3 96 28 9.85369186E+01 1.00000000E+02 GHB3
  1 96 29 9.85293808E+01 1.00000000E+02 GHB1
  3 96 29 9.85293808E+01 1.00000000E+02 GHB3
  1 96 30 9.84975510E+01 1.00000000E+02 GHB1
  3 96 30 9.84975510E+01 1.00000000E+02 GHB3
  1 96 31 9.84654770E+01 1.00000000E+02 GHB1
  3 96 31 9.84654770E+01 1.00000000E+02 GHB3
  1 96 32 9.84331207E+01 1.00000000E+02 GHB1
  3 96 32 9.84331207E+01 1.00000000E+02 GHB3
  1 96 33 9.84004745E+01 1.00000000E+02 GHB1
  3 96 33 9.84004745E+01 1.00000000E+02 GHB3
  1 96 34 9.83926620E+01 1.00000000E+02 GHB1
  3 96 34 9.83926620E+01 1.00000000E+02 GHB3
  1 96 35 9.83593674E+01 1.00000000E+02 GHB1
  3 96 35 9.83593674E+01 1.00000000E+02 GHB3
  1 96 36 9.83257141E+01 1.00000000E+02 GHB1
  3 96 36 9.83257141E+01 1.00000000E+02 GHB3
  1 96 37 9.82916870E+01 1.00000000E+02 GHB1
  3 96 37 9.82916870E+01 1.00000000E+02 GHB3
  1 96 38 9.82832489E+01 1.00000000E+02 GHB1
  3 96 38 9.82832489E+01 1.00000000E+02 GHB3
  1 96 39 9.82483673E+01 1.00000000E+02 GHB1
  3 96 39 9.82483673E+01 1.00000000E+02 GHB3
  1 96 40 9.82130661E+01 1.00000000E+02 GHB1
  3 96 40 9.82130661E+01 1.00000000E+02 GHB3
  1 96 41 9.81773605E+01 1.00000000E+02 GHB1
  3 96 41 9.81773605E+01 1.00000000E+02 GHB3
  1 96 42 9.81678162E+01 1.00000000E+02 GHB1
  3 96 42 9.81678162E+01 1.00000000E+02 GHB3
  1 96 43 9.81311111E+01 1.00000000E+02 GHB1
  3 96 43 9.81311111E+01 1.00000000E+02 GHB3
  1 96 44 9.80939789E+01 1.00000000E+02 GHB1
  3 96 44 9.80939789E+01 1.00000000E+02 GHB3
  1 96 45 9.80564346E+01 1.00000000E+02 GHB1
  3 96 45 9.80564346E+01 1.00000000E+02 GHB3
  1 96 46 9.80454407E+01 1.00000000E+02 GHB1
  3 96 46 9.80454407E+01 1.00000000E+02 GHB3
  1 96 47 9.80068283E+01 1.00000000E+02 GHB1
  3 96 47 9.80068283E+01 1.00000000E+02 GHB3
  1 96 48 9.79678040E+01 1.00000000E+02 GHB1
  3 96 48 9.79678040E+01 1.00000000E+02 GHB3
  1 96 49 9.79678040E+01 1.00000000E+02 GHB1
  3 96 49 9.79678040E+01 1.00000000E+02 GHB3
  1 96 50 9.79559097E+01 1.00000000E+02 GHB1
  3 96 50 9.79559097E+01 1.00000000E+02 GHB3
  1 96 51 9.79157944E+01 1.00000000E+02 GHB1
  3 96 51 9.79157944E+01 1.00000000E+02 GHB3
  1 96 52 9.78752747E+01 1.00000000E+02 GHB1
  3 96 52 9.78752747E+01 1.00000000E+02 GHB3
  1 96 53 9.78343658E+01 1.00000000E+02 GHB1
  3 96 53 9.78343658E+01 1.00000000E+02 GHB3
  1 96 54 9.78209229E+01 1.00000000E+02 GHB1
  3 96 54 9.78209229E+01 1.00000000E+02 GHB3
  1 96 55 9.77789078E+01 1.00000000E+02 GHB1
  3 96 55 9.77789078E+01 1.00000000E+02 GHB3
  1 96 56 9.77365112E+01 1.00000000E+02 GHB1
  3 96 56 9.77365112E+01 1.00000000E+02 GHB3
  1 96 57 9.76937332E+01 1.00000000E+02 GHB1
  3 96 57 9.76937332E+01 1.00000000E+02 GHB3
  1 96 58 9.76505966E+01 1.00000000E+02 GHB1
  3 96 58 9.76505966E+01 1.00000000E+02 GHB3
  1 96 59 9.76350021E+01 1.00000000E+02 GHB1
  3 96 59 9.76350021E+01 1.00000000E+02 GHB3
  1 96 60 9.75907211E+01 1.00000000E+02 GHB1
  3 96 60 9.75907211E+01 1.00000000E+02 GHB3
  1 96 61 9.75460739E+01 1.00000000E+02 GHB1
  3 96 61 9.75460739E+01 1.00000000E+02 GHB3
  1 96 62 9.75010681E+01 1.00000000E+02 GHB1
  3 96 62 9.75010681E+01 1.00000000E+02 GHB3
  1 96 63 9.74844437E+01 1.00000000E+02 GHB1
  3 96 63 9.74844437E+01 1.00000000E+02 GHB3
  1 96 64 9.74382629E+01 1.00000000E+02 GHB1