# File generated by Flopy version 3.9.1 on 07/01/2025 at 15:40:38.
BEGIN options
END options

BEGIN dimensions
  MAXBOUND  8
END dimensions

BEGIN period  1
  1 20 8 100
  2 20 8 100
  3 20 8 100
  4 20 8 100
  1 20 9 100
  2 20 9 100
  3 20 9 100
  4 20 9 100
END period  1

