# File generated by Flopy version 3.9.1 on 07/01/2025 at 15:40:38.
BEGIN options
END options

BEGIN griddata
  strt
    CONSTANT     100.00000000
END griddata

