# File generated by Flopy version 3.9.1 on 05/08/2025 at 10:46:10.
BEGIN options
  SAVE_FLOWS
END options

BEGIN packages
  DIS6  ex-gwf-maw-p03.dis  dis
  NPF6  ex-gwf-maw-p03.npf  npf
  IC6  ex-gwf-maw-p03.ic  ic
  CHD6  ex-gwf-maw-p03.chd  chd_0
  RCH6  ex-gwf-maw-p03.rcha  rcha_0
  OBS6  ex-gwf-maw-p03.gwf.obs  obs_0
  OC6  ex-gwf-maw-p03.oc  oc
END packages

