ptf ~
# RCH package for MODFLOW-2005 generated by Flopy 3.9.1
         3         0
         1        -1 # Stress period 1
CONSTANT    1.000000E-03                           #rech_1                        
         1        -1 # Stress period 2
INTERNAL 1.0 (FREE) -1      #rech_1
 ~  RECH_MULT  ~ ~  RECH_MULT  ~ ~  RECH_MULT  ~           0.001           0.001
 ~  RECH_MULT  ~ ~  RECH_MULT  ~ ~  RECH_MULT  ~           0.001           0.001
 ~  RECH_MULT  ~ ~  RECH_MULT  ~ ~  RECH_MULT  ~           0.001           0.001
           0.001           0.001           0.001           0.001           0.001
           0.001           0.001           0.001           0.001           0.001
         1        -1 # Stress period 3
CONSTANT    3.000000E-03                           #rech_3                        
