pcf
* control data
             restart          estimation
      1731       400        38         0        16
        86         2              single               point         1
   2.000000E+01  -3.000000E+00   3.000000E-01   1.000000E-02        -7
   1.000000E+01   1.000000E+01   1.000000E-03
   1.000000E-01
         0   1.000000E-02         3         3   1.000000E-02         3
         0         0         0
* singular value decomposition
         1
  10000000    1.000000E-06
1
* parameter groups
npfklayer1gr           relative              1.0000000000E-02      0.0 switch                2.0000000000E+00      parabolic             1.0000000000E-05      5.0000000000E-01      smaller              
icstrtlayer1           relative              1.0000000000E-02      0.0 switch                2.0000000000E+00      parabolic             1.0000000000E-05      5.0000000000E-01      smaller              
welgrd                 relative              1.0000000000E-02      0.0 switch                2.0000000000E+00      parabolic             1.0000000000E-05      5.0000000000E-01      smaller              
sfrcondgr              relative              1.0000000000E-02      0.0 switch                2.0000000000E+00      parabolic             1.0000000000E-05      5.0000000000E-01      smaller              
npfklayer1pp           relative              1.0000000000E-02      0.0 switch                2.0000000000E+00      parabolic             1.0000000000E-05      5.0000000000E-01      smaller              
welcst                 relative              1.0000000000E-02      0.0 switch                2.0000000000E+00      parabolic             1.0000000000E-05      5.0000000000E-01      smaller              
ghbheadgr              relative              1.0000000000E-02      0.0 switch                2.0000000000E+00      parabolic             1.0000000000E-05      5.0000000000E-01      smaller              
ghbcondgr              relative              1.0000000000E-02      0.0 switch                2.0000000000E+00      parabolic             1.0000000000E-05      5.0000000000E-01      smaller              
rch_recharge_24tcn     relative              1.0000000000E-02      0.0 switch                2.0000000000E+00      parabolic             1.0000000000E-05      5.0000000000E-01      smaller              
rch_recharge_20tcn     relative              1.0000000000E-02      0.0 switch                2.0000000000E+00      parabolic             1.0000000000E-05      5.0000000000E-01      smaller              
rch_recharge_21tcn     relative              1.0000000000E-02      0.0 switch                2.0000000000E+00      parabolic             1.0000000000E-05      5.0000000000E-01      smaller              
rch_recharge_22tcn     relative              1.0000000000E-02      0.0 switch                2.0000000000E+00      parabolic             1.0000000000E-05      5.0000000000E-01      smaller              
rch_recharge_23tcn     relative              1.0000000000E-02      0.0 switch                2.0000000000E+00      parabolic             1.0000000000E-05      5.0000000000E-01      smaller              
npfklayer1cn           relative              1.0000000000E-02      0.0 switch                2.0000000000E+00      parabolic             1.0000000000E-05      5.0000000000E-01      smaller              
rch_recharge_25tcn     relative              1.0000000000E-02      0.0 switch                2.0000000000E+00      parabolic             1.0000000000E-05      5.0000000000E-01      smaller              
rch_recharge_19tcn     relative              1.0000000000E-02      0.0 switch                2.0000000000E+00      parabolic             1.0000000000E-05      5.0000000000E-01      smaller              
ghbheadcn              relative              1.0000000000E-02      0.0 switch                2.0000000000E+00      parabolic             1.0000000000E-05      5.0000000000E-01      smaller              
sfrcondcn              relative              1.0000000000E-02      0.0 switch                2.0000000000E+00      parabolic             1.0000000000E-05      5.0000000000E-01      smaller              
sfrgr                  relative              1.0000000000E-02      0.0 switch                2.0000000000E+00      parabolic             1.0000000000E-05      5.0000000000E-01      smaller              
ghbcondcn              relative              1.0000000000E-02      0.0 switch                2.0000000000E+00      parabolic             1.0000000000E-05      5.0000000000E-01      smaller              
rch_recharge_18tcn     relative              1.0000000000E-02      0.0 switch                2.0000000000E+00      parabolic             1.0000000000E-05      5.0000000000E-01      smaller              
rch_recharge_1tcn      relative              1.0000000000E-02      0.0 switch                2.0000000000E+00      parabolic             1.0000000000E-05      5.0000000000E-01      smaller              
rch_recharge_8tcn      relative              1.0000000000E-02      0.0 switch                2.0000000000E+00      parabolic             1.0000000000E-05      5.0000000000E-01      smaller              
rch_recharge_2tcn      relative              1.0000000000E-02      0.0 switch                2.0000000000E+00      parabolic             1.0000000000E-05      5.0000000000E-01      smaller              
rch_recharge_3tcn      relative              1.0000000000E-02      0.0 switch                2.0000000000E+00      parabolic             1.0000000000E-05      5.0000000000E-01      smaller              
rch_recharge_4tcn      relative              1.0000000000E-02      0.0 switch                2.0000000000E+00      parabolic             1.0000000000E-05      5.0000000000E-01      smaller              
rch_recharge_5tcn      relative              1.0000000000E-02      0.0 switch                2.0000000000E+00      parabolic             1.0000000000E-05      5.0000000000E-01      smaller              
rch_recharge_6tcn      relative              1.0000000000E-02      0.0 switch                2.0000000000E+00      parabolic             1.0000000000E-05      5.0000000000E-01      smaller              
rch_recharge_7tcn      relative              1.0000000000E-02      0.0 switch                2.0000000000E+00      parabolic             1.0000000000E-05      5.0000000000E-01      smaller              
rch_recharge_9tcn      relative              1.0000000000E-02      0.0 switch                2.0000000000E+00      parabolic             1.0000000000E-05      5.0000000000E-01      smaller              
rch_recharge_16tcn     relative              1.0000000000E-02      0.0 switch                2.0000000000E+00      parabolic             1.0000000000E-05      5.0000000000E-01      smaller              
rch_recharge_10tcn     relative              1.0000000000E-02      0.0 switch                2.0000000000E+00      parabolic             1.0000000000E-05      5.0000000000E-01      smaller              
rch_recharge_11tcn     relative              1.0000000000E-02      0.0 switch                2.0000000000E+00      parabolic             1.0000000000E-05      5.0000000000E-01      smaller              
rch_recharge_12tcn     relative              1.0000000000E-02      0.0 switch                2.0000000000E+00      parabolic             1.0000000000E-05      5.0000000000E-01      smaller              
rch_recharge_13tcn     relative              1.0000000000E-02      0.0 switch                2.0000000000E+00      parabolic             1.0000000000E-05      5.0000000000E-01      smaller              
rch_recharge_14tcn     relative              1.0000000000E-02      0.0 switch                2.0000000000E+00      parabolic             1.0000000000E-05      5.0000000000E-01      smaller              
rch_recharge_15tcn     relative              1.0000000000E-02      0.0 switch                2.0000000000E+00      parabolic             1.0000000000E-05      5.0000000000E-01      smaller              
rch_recharge_17tcn     relative              1.0000000000E-02      0.0 switch                2.0000000000E+00      parabolic             1.0000000000E-05      5.0000000000E-01      smaller              
* parameter data
   pname:npfklayer1gr_inst:0_ptype:gr_pstyle:m_i:0_j:0_x:125.00_y:9875.00_zone:1  log                   factor                1.0000000000E+00      2.0000000000E-01      5.0000000000E+00      npfklayer1gr          1.0000000000E+00      0.0000000000E+00      1          
   pname:npfklayer1gr_inst:0_ptype:gr_pstyle:m_i:0_j:1_x:375.00_y:9875.00_zone:1  log                   factor                1.0000000000E+00      2.0000000000E-01      5.0000000000E+00      npfklayer1gr          1.0000000000E+00      0.0000000000E+00      1          
   pname:npfklayer1gr_inst:0_ptype:gr_pstyle:m_i:0_j:2_x:625.00_y:9875.00_zone:1  log                   factor                1.0000000000E+00      2.0000000000E-01      5.0000000000E+00      npfklayer1gr          1.0000000000E+00      0.0000000000E+00      1          
   pname:npfklayer1gr_inst:0_ptype:gr_pstyle:m_i:0_j:3_x:875.00_y:9875.00_zone:1  log                   factor                1.0000000000E+00      2.0000000000E-01      5.0000000000E+00      npfklayer1gr          1.0000000000E+00      0.0000000000E+00      1          
  pname:npfklayer1gr_inst:0_ptype:gr_pstyle:m_i:0_j:4_x:1125.00_y:9875.00_zone:1  log                   factor                1.0000000000E+00      2.0000000000E-01      5.0000000000E+00      npfklayer1gr          1.0000000000E+00      0.0000000000E+00      1          
  pname:npfklayer1gr_inst:0_ptype:gr_pstyle:m_i:0_j:5_x:1375.00_y:9875.00_zone:1  log                   factor                1.0000000000E+00      2.0000000000E-01      5.0000000000E+00      npfklayer1gr          1.0000000000E+00      0.0000000000E+00      1          
  pname:npfklayer1gr_inst:0_ptype:gr_pstyle:m_i:0_j:6_x:1625.00_y:9875.00_zone:1  log                   factor                1.0000000000E+00      2.0000000000E-01      5.0000000000E+00      npfklayer1gr          1.0000000000E+00      0.0000000000E+00      1          
  pname:npfklayer1gr_inst:0_ptype:gr_pstyle:m_i:0_j:7_x:1875.00_y:9875.00_zone:1  log                   factor                1.0000000000E+00      2.0000000000E-01      5.0000000000E+00      npfklayer1gr          1.0000000000E+00      0.0000000000E+00      1          
  pname:npfklayer1gr_inst:0_ptype:gr_pstyle:m_i:0_j:8_x:2125.00_y:9875.00_zone:1  log                   factor                1.0000000000E+00      2.0000000000E-01      5.0000000000E+00      npfklayer1gr          1.0000000000E+00      0.0000000000E+00      1          
  pname:npfklayer1gr_inst:0_ptype:gr_pstyle:m_i:0_j:9_x:2375.00_y:9875.00_zone:1  log                   factor                1.0000000000E+00      2.0000000000E-01      5.0000000000E+00      npfklayer1gr          1.0000000000E+00      0.0000000000E+00      1          
 pname:npfklayer1gr_inst:0_ptype:gr_pstyle:m_i:0_j:10_x:2625.00_y:9875.00_zone:1  log                   factor                1.0000000000E+00      2.0000000000E-01      5.0000000000E+00      npfklayer1gr          1.0000000000E+00      0.0000000000E+00      1          
 pname:npfklayer1gr_inst:0_ptype:gr_pstyle:m_i:0_j:11_x:2875.00_y:9875.00_zone:1  log                   factor                1.0000000000E+00      2.0000000000E-01      5.0000000000E+00      npfklayer1gr          1.0000000000E+00      0.0000000000E+00      1          
 pname:npfklayer1gr_inst:0_ptype:gr_pstyle:m_i:0_j:12_x:3125.00_y:9875.00_zone:1  log                   factor                1.0000000000E+00      2.0000000000E-01      5.0000000000E+00      npfklayer1gr          1.0000000000E+00      0.0000000000E+00      1          
 pname:npfklayer1gr_inst:0_ptype:gr_pstyle:m_i:0_j:13_x:3375.00_y:9875.00_zone:1  log                   factor                1.0000000000E+00      2.0000000000E-01      5.0000000000E+00      npfklayer1gr          1.0000000000E+00      0.0000000000E+00      1          
 pname:npfklayer1gr_inst:0_ptype:gr_pstyle:m_i:0_j:14_x:3625.00_y:9875.00_zone:1  log                   factor                1.0000000000E+00      2.0000000000E-01      5.0000000000E+00      npfklayer1gr          1.0000000000E+00      0.0000000000E+00      1          
 pname:npfklayer1gr_inst:0_ptype:gr_pstyle:m_i:0_j:15_x:3875.00_y:9875.00_zone:1  log                   factor                1.0000000000E+00      2.0000000000E-01      5.0000000000E+00      npfklayer1gr          1.0000000000E+00      0.0000000000E+00      1          
 pname:npfklayer1gr_inst:0_ptype:gr_pstyle:m_i:0_j:16_x:4125.00_y:9875.00_zone:1  log                   factor                1.0000000000E+00      2.0000000000E-01      5.0000000000E+00      npfklayer1gr          1.0000000000E+00      0.0000000000E+00      1          
 pname:npfklayer1gr_inst:0_ptype:gr_pstyle:m_i:0_j:17_x:4375.00_y:9875.00_zone:1  log                   factor                1.0000000000E+00      2.0000000000E-01      5.0000000000E+00      npfklayer1gr          1.0000000000E+00      0.0000000000E+00      1          
 pname:npfklayer1gr_inst:0_ptype:gr_pstyle:m_i:0_j:18_x:4625.00_y:9875.00_zone:1  log                   factor                1.0000000000E+00      2.0000000000E-01      5.0000000000E+00      npfklayer1gr          1.0000000000E+00      0.0000000000E+00      1          
 pname:npfklayer1gr_inst:0_ptype:gr_pstyle:m_i:0_j:19_x:4875.00_y:9875.00_zone:1  log                   factor                1.0000000000E+00      2.0000000000E-01      5.0000000000E+00      npfklayer1gr          1.0000000000E+00      0.0000000000E+00      1          
   pname:npfklayer1gr_inst:0_ptype:gr_pstyle:m_i:1_j:0_x:125.00_y:9625.00_zone:1  log                   factor                1.0000000000E+00      2.0000000000E-01      5.0000000000E+00      npfklayer1gr          1.0000000000E+00      0.0000000000E+00      1          
   pname:npfklayer1gr_inst:0_ptype:gr_pstyle:m_i:1_j:1_x:375.00_y:9625.00_zone:1  log                   factor                1.0000000000E+00      2.0000000000E-01      5.0000000000E+00      npfklayer1gr          1.0000000000E+00      0.0000000000E+00      1          
   pname:npfklayer1gr_inst:0_ptype:gr_pstyle:m_i:1_j:2_x:625.00_y:9625.00_zone:1  log                   factor                1.0000000000E+00      2.0000000000E-01      5.0000000000E+00      npfklayer1gr          1.0000000000E+00      0.0000000000E+00      1          
   pname:npfklayer1gr_inst:0_ptype:gr_pstyle:m_i:1_j:3_x:875.00_y:9625.00_zone:1  log                   factor                1.0000000000E+00      2.0000000000E-01      5.0000000000E+00      npfklayer1gr          1.0000000000E+00      0.0000000000E+00      1          
  pname:npfklayer1gr_inst:0_ptype:gr_pstyle:m_i:1_j:4_x:1125.00_y:9625.00_zone:1  log                   factor                1.0000000000E+00      2.0000000000E-01      5.0000000000E+00      npfklayer1gr          1.0000000000E+00      0.0000000000E+00      1          
  pname:npfklayer1gr_inst:0_ptype:gr_pstyle:m_i:1_j:5_x:1375.00_y:9625.00_zone:1  log                   factor                1.0000000000E+00      2.0000000000E-01      5.0000000000E+00      npfklayer1gr          1.0000000000E+00      0.0000000000E+00      1          
  pname:npfklayer1gr_inst:0_ptype:gr_pstyle:m_i:1_j:6_x:1625.00_y:9625.00_zone:1  log                   factor                1.0000000000E+00      2.0000000000E-01      5.0000000000E+00      npfklayer1gr          1.0000000000E+00      0.0000000000E+00      1          
  pname:npfklayer1gr_inst:0_ptype:gr_pstyle:m_i:1_j:7_x:1875.00_y:9625.00_zone:1  log                   factor                1.0000000000E+00      2.0000000000E-01      5.0000000000E+00      npfklayer1gr          1.0000000000E+00      0.0000000000E+00      1          
  pname:npfklayer1gr_inst:0_ptype:gr_pstyle:m_i:1_j:8_x:2125.00_y:9625.00_zone:1  log                   factor                1.0000000000E+00      2.0000000000E-01      5.0000000000E+00      npfklayer1gr          1.0000000000E+00      0.0000000000E+00      1          
  pname:npfklayer1gr_inst:0_ptype:gr_pstyle:m_i:1_j:9_x:2375.00_y:9625.00_zone:1  log                   factor                1.0000000000E+00      2.0000000000E-01      5.0000000000E+00      npfklayer1gr          1.0000000000E+00      0.0000000000E+00      1          
 pname:npfklayer1gr_inst:0_ptype:gr_pstyle:m_i:1_j:10_x:2625.00_y:9625.00_zone:1  log                   factor                1.0000000000E+00      2.0000000000E-01      5.0000000000E+00      npfklayer1gr          1.0000000000E+00      0.0000000000E+00      1          
 pname:npfklayer1gr_inst:0_ptype:gr_pstyle:m_i:1_j:11_x:2875.00_y:9625.00_zone:1  log                   factor                1.0000000000E+00      2.0000000000E-01      5.0000000000E+00      npfklayer1gr          1.0000000000E+00      0.0000000000E+00      1          
 pname:npfklayer1gr_inst:0_ptype:gr_pstyle:m_i:1_j:12_x:3125.00_y:9625.00_zone:1  log                   factor                1.0000000000E+00      2.0000000000E-01      5.0000000000E+00      npfklayer1gr          1.0000000000E+00      0.0000000000E+00      1          
 pname:npfklayer1gr_inst:0_ptype:gr_pstyle:m_i:1_j:13_x:3375.00_y:9625.00_zone:1  log                   factor                1.0000000000E+00      2.0000000000E-01      5.0000000000E+00      npfklayer1gr          1.0000000000E+00      0.0000000000E+00      1          
 pname:npfklayer1gr_inst:0_ptype:gr_pstyle:m_i:1_j:14_x:3625.00_y:9625.00_zone:1  log                   factor                1.0000000000E+00      2.0000000000E-01      5.0000000000E+00      npfklayer1gr          1.0000000000E+00      0.0000000000E+00      1          
 pname:npfklayer1gr_inst:0_ptype:gr_pstyle:m_i:1_j:15_x:3875.00_y:9625.00_zone:1  log                   factor                1.0000000000E+00      2.0000000000E-01      5.0000000000E+00      npfklayer1gr          1.0000000000E+00      0.0000000000E+00      1          
 pname:npfklayer1gr_inst:0_ptype:gr_pstyle:m_i:1_j:16_x:4125.00_y:9625.00_zone:1  log                   factor                1.0000000000E+00      2.0000000000E-01      5.0000000000E+00      npfklayer1gr          1.0000000000E+00      0.0000000000E+00      1          
 pname:npfklayer1gr_inst:0_ptype:gr_pstyle:m_i:1_j:17_x:4375.00_y:9625.00_zone:1  log                   factor                1.0000000000E+00      2.0000000000E-01      5.0000000000E+00      npfklayer1gr          1.0000000000E+00      0.0000000000E+00      1          
 pname:npfklayer1gr_inst:0_ptype:gr_pstyle:m_i:1_j:18_x:4625.00_y:9625.00_zone:1  log                   factor                1.0000000000E+00      2.0000000000E-01      5.0000000000E+00      npfklayer1gr          1.0000000000E+00      0.0000000000E+00      1          
 pname:npfklayer1gr_inst:0_ptype:gr_pstyle:m_i:1_j:19_x:4875.00_y:9625.00_zone:1  log                   factor                1.0000000000E+00      2.0000000000E-01      5.0000000000E+00      npfklayer1gr          1.0000000000E+00      0.0000000000E+00      1          
   pname:npfklayer1gr_inst:0_ptype:gr_pstyle:m_i:2_j:0_x:125.00_y:9375.00_zone:1  log                   factor                1.0000000000E+00      2.0000000000E-01      5.0000000000E+00      npfklayer1gr          1.0000000000E+00      0.0000000000E+00      1          
   pname:npfklayer1gr_inst:0_ptype:gr_pstyle:m_i:2_j:1_x:375.00_y:9375.00_zone:1  log                   factor                1.0000000000E+00      2.0000000000E-01      5.0000000000E+00      npfklayer1gr          1.0000000000E+00      0.0000000000E+00      1          
   pname:npfklayer1gr_inst:0_ptype:gr_pstyle:m_i:2_j:2_x:625.00_y:9375.00_zone:1  log                   factor                1.0000000000E+00      2.0000000000E-01      5.0000000000E+00      npfklayer1gr          1.0000000000E+00      0.0000000000E+00      1          
   pname:npfklayer1gr_inst:0_ptype:gr_pstyle:m_i:2_j:3_x:875.00_y:9375.00_zone:1  log                   factor                1.0000000000E+00      2.0000000000E-01      5.0000000000E+00      npfklayer1gr          1.0000000000E+00      0.0000000000E+00      1          
  pname:npfklayer1gr_inst:0_ptype:gr_pstyle:m_i:2_j:4_x:1125.00_y:9375.00_zone:1  log                   factor                1.0000000000E+00      2.0000000000E-01      5.0000000000E+00      npfklayer1gr          1.0000000000E+00      0.0000000000E+00      1          
  pname:npfklayer1gr_inst:0_ptype:gr_pstyle:m_i:2_j:5_x:1375.00_y:9375.00_zone:1  log                   factor                1.0000000000E+00      2.0000000000E-01      5.0000000000E+00      npfklayer1gr          1.0000000000E+00      0.0000000000E+00      1          
  pname:npfklayer1gr_inst:0_ptype:gr_pstyle:m_i:2_j:6_x:1625.00_y:9375.00_zone:1  log                   factor                1.0000000000E+00      2.0000000000E-01      5.0000000000E+00      npfklayer1gr          1.0000000000E+00      0.0000000000E+00      1          
  pname:npfklayer1gr_inst:0_ptype:gr_pstyle:m_i:2_j:7_x:1875.00_y:9375.00_zone:1  log                   factor                1.0000000000E+00      2.0000000000E-01      5.0000000000E+00      npfklayer1gr          1.0000000000E+00      0.0000000000E+00      1          
  pname:npfklayer1gr_inst:0_ptype:gr_pstyle:m_i:2_j:8_x:2125.00_y:9375.00_zone:1  log                   factor                1.0000000000E+00      2.0000000000E-01      5.0000000000E+00      npfklayer1gr          1.0000000000E+00      0.0000000000E+00      1          
  pname:npfklayer1gr_inst:0_ptype:gr_pstyle:m_i:2_j:9_x:2375.00_y:9375.00_zone:1  log                   factor                1.0000000000E+00      2.0000000000E-01      5.0000000000E+00      npfklayer1gr          1.0000000000E+00      0.0000000000E+00      1          
 pname:npfklayer1gr_inst:0_ptype:gr_pstyle:m_i:2_j:10_x:2625.00_y:9375.00_zone:1  log                   factor                1.0000000000E+00      2.0000000000E-01      5.0000000000E+00      npfklayer1gr          1.0000000000E+00      0.0000000000E+00      1          
 pname:npfklayer1gr_inst:0_ptype:gr_pstyle:m_i:2_j:11_x:2875.00_y:9375.00_zone:1  log                   factor                1.0000000000E+00      2.0000000000E-01      5.0000000000E+00      npfklayer1gr          1.0000000000E+00      0.0000000000E+00      1          
 pname:npfklayer1gr_inst:0_ptype:gr_pstyle:m_i:2_j:12_x:3125.00_y:9375.00_zone:1  log                   factor                1.0000000000E+00      2.0000000000E-01      5.0000000000E+00      npfklayer1gr          1.0000000000E+00      0.0000000000E+00      1          
 pname:npfklayer1gr_inst:0_ptype:gr_pstyle:m_i:2_j:13_x:3375.00_y:9375.00_zone:1  log                   factor                1.0000000000E+00      2.0000000000E-01      5.0000000000E+00      npfklayer1gr          1.0000000000E+00      0.0000000000E+00      1          
 pname:npfklayer1gr_inst:0_ptype:gr_pstyle:m_i:2_j:14_x:3625.00_y:9375.00_zone:1  log                   factor                1.0000000000E+00      2.0000000000E-01      5.0000000000E+00      npfklayer1gr          1.0000000000E+00      0.0000000000E+00      1          
 pname:npfklayer1gr_inst:0_ptype:gr_pstyle:m_i:2_j:15_x:3875.00_y:9375.00_zone:1  log                   factor                1.0000000000E+00      2.0000000000E-01      5.0000000000E+00      npfklayer1gr          1.0000000000E+00      0.0000000000E+00      1          
 pname:npfklayer1gr_inst:0_ptype:gr_pstyle:m_i:2_j:16_x:4125.00_y:9375.00_zone:1  log                   factor                1.0000000000E+00      2.0000000000E-01      5.0000000000E+00      npfklayer1gr          1.0000000000E+00      0.0000000000E+00      1          
 pname:npfklayer1gr_inst:0_ptype:gr_pstyle:m_i:2_j:17_x:4375.00_y:9375.00_zone:1  log                   factor                1.0000000000E+00      2.0000000000E-01      5.0000000000E+00      npfklayer1gr          1.0000000000E+00      0.0000000000E+00      1          
 pname:npfklayer1gr_inst:0_ptype:gr_pstyle:m_i:2_j:18_x:4625.00_y:9375.00_zone:1  log                   factor                1.0000000000E+00      2.0000000000E-01      5.0000000000E+00      npfklayer1gr          1.0000000000E+00      0.0000000000E+00      1          
 pname:npfklayer1gr_inst:0_ptype:gr_pstyle:m_i:2_j:19_x:4875.00_y:9375.00_zone:1  log                   factor                1.0000000000E+00      2.0000000000E-01      5.0000000000E+00      npfklayer1gr          1.0000000000E+00      0.0000000000E+00      1          
   pname:npfklayer1gr_inst:0_ptype:gr_pstyle:m_i:3_j:0_x:125.00_y:9125.00_zone:1  log                   factor                1.0000000000E+00      2.0000000000E-01      5.0000000000E+00      npfklayer1gr          1.0000000000E+00      0.0000000000E+00      1          
   pname:npfklayer1gr_inst:0_ptype:gr_pstyle:m_i:3_j:1_x:375.00_y:9125.00_zone:1  log                   factor                1.0000000000E+00      2.0000000000E-01      5.0000000000E+00      npfklayer1gr          1.0000000000E+00      0.0000000000E+00      1          
   pname:npfklayer1gr_inst:0_ptype:gr_pstyle:m_i:3_j:2_x:625.00_y:9125.00_zone:1  log                   factor                1.0000000000E+00      2.0000000000E-01      5.0000000000E+00      npfklayer1gr          1.0000000000E+00      0.0000000000E+00      1          
   pname:npfklayer1gr_inst:0_ptype:gr_pstyle:m_i:3_j:3_x:875.00_y:9125.00_zone:1  log                   factor                1.0000000000E+00      2.0000000000E-01      5.0000000000E+00      npfklayer1gr          1.0000000000E+00      0.0000000000E+00      1          
  pname:npfklayer1gr_inst:0_ptype:gr_pstyle:m_i:3_j:4_x:1125.00_y:9125.00_zone:1  log                   factor                1.0000000000E+00      2.0000000000E-01      5.0000000000E+00      npfklayer1gr          1.0000000000E+00      0.0000000000E+00      1          
  pname:npfklayer1gr_inst:0_ptype:gr_pstyle:m_i:3_j:5_x:1375.00_y:9125.00_zone:1  log                   factor                1.0000000000E+00      2.0000000000E-01      5.0000000000E+00      npfklayer1gr          1.0000000000E+00      0.0000000000E+00      1          
  pname:npfklayer1gr_inst:0_ptype:gr_pstyle:m_i:3_j:6_x:1625.00_y:9125.00_zone:1  log                   factor                1.0000000000E+00      2.0000000000E-01      5.0000000000E+00      npfklayer1gr          1.0000000000E+00      0.0000000000E+00      1          
  pname:npfklayer1gr_inst:0_ptype:gr_pstyle:m_i:3_j:7_x:1875.00_y:9125.00_zone:1  log                   factor                1.0000000000E+00      2.0000000000E-01      5.0000000000E+00      npfklayer1gr          1.0000000000E+00      0.0000000000E+00      1          
  pname:npfklayer1gr_inst:0_ptype:gr_pstyle:m_i:3_j:8_x:2125.00_y:9125.00_zone:1  log                   factor                1.0000000000E+00      2.0000000000E-01      5.0000000000E+00      npfklayer1gr          1.0000000000E+00      0.0000000000E+00      1          
  pname:npfklayer1gr_inst:0_ptype:gr_pstyle:m_i:3_j:9_x:2375.00_y:9125.00_zone:1  log                   factor                1.0000000000E+00      2.0000000000E-01      5.0000000000E+00      npfklayer1gr          1.0000000000E+00      0.0000000000E+00      1          
 pname:npfklayer1gr_inst:0_ptype:gr_pstyle:m_i:3_j:10_x:2625.00_y:9125.00_zone:1  log                   factor                1.0000000000E+00      2.0000000000E-01      5.0000000000E+00      npfklayer1gr          1.0000000000E+00      0.0000000000E+00      1          
 pname:npfklayer1gr_inst:0_ptype:gr_pstyle:m_i:3_j:11_x:2875.00_y:9125.00_zone:1  log                   factor                1.0000000000E+00      2.0000000000E-01      5.0000000000E+00      npfklayer1gr          1.0000000000E+00      0.0000000000E+00      1          
 pname:npfklayer1gr_inst:0_ptype:gr_pstyle:m_i:3_j:12_x:3125.00_y:9125.00_zone:1  log                   factor                1.0000000000E+00      2.0000000000E-01      5.0000000000E+00      npfklayer1gr          1.0000000000E+00      0.0000000000E+00      1          
 pname:npfklayer1gr_inst:0_ptype:gr_pstyle:m_i:3_j:13_x:3375.00_y:9125.00_zone:1  log                   factor                1.0000000000E+00      2.0000000000E-01      5.0000000000E+00      npfklayer1gr          1.0000000000E+00      0.0000000000E+00      1          
 pname:npfklayer1gr_inst:0_ptype:gr_pstyle:m_i:3_j:14_x:3625.00_y:9125.00_zone:1  log                   factor                1.0000000000E+00      2.0000000000E-01      5.0000000000E+00      npfklayer1gr          1.0000000000E+00      0.0000000000E+00      1          
 pname:npfklayer1gr_inst:0_ptype:gr_pstyle:m_i:3_j:15_x:3875.00_y:9125.00_zone:1  log                   factor                1.0000000000E+00      2.0000000000E-01      5.0000000000E+00      npfklayer1gr          1.0000000000E+00      0.0000000000E+00      1          
 pname:npfklayer1gr_inst:0_ptype:gr_pstyle:m_i:3_j:16_x:4125.00_y:9125.00_zone:1  log                   factor                1.0000000000E+00      2.0000000000E-01      5.0000000000E+00      npfklayer1gr          1.0000000000E+00      0.0000000000E+00      1          
 pname:npfklayer1gr_inst:0_ptype:gr_pstyle:m_i:3_j:17_x:4375.00_y:9125.00_zone:1  log                   factor                1.0000000000E+00      2.0000000000E-01      5.0000000000E+00      npfklayer1gr          1.0000000000E+00      0.0000000000E+00      1          
 pname:npfklayer1gr_inst:0_ptype:gr_pstyle:m_i:3_j:18_x:4625.00_y:9125.00_zone:1  log                   factor                1.0000000000E+00      2.0000000000E-01      5.0000000000E+00      npfklayer1gr          1.0000000000E+00      0.0000000000E+00      1          
 pname:npfklayer1gr_inst:0_ptype:gr_pstyle:m_i:3_j:19_x:4875.00_y:9125.00_zone:1  log                   factor                1.0000000000E+00      2.0000000000E-01      5.0000000000E+00      npfklayer1gr          1.0000000000E+00      0.0000000000E+00      1          