# File generated by Flopy version 3.10.0.dev3 on 06/16/2025 at 07:15:29.
BEGIN options
  XORIGIN  1.40000000E+05
  YORIGIN       0.00000000
END options

BEGIN dimensions
  NLAY  2
  NROW  12
  NCOL  9
END dimensions

BEGIN griddata
  delr
    INTERNAL  FACTOR  1.0
      5000.00000000    5000.00000000    5000.00000000    5000.00000000    5000.00000000    5000.00000000    5000.00000000    5000.00000000    5000.00000000
  delc
    INTERNAL  FACTOR  1.0
      5000.00000000    5000.00000000    5000.00000000    5000.00000000    5000.00000000    5000.00000000    5000.00000000    5000.00000000    5000.00000000    5000.00000000    5000.00000000    5000.00000000
  top
    INTERNAL  FACTOR  1.0
         0.00000000       0.00000000       0.00000000       0.00000000       0.00000000       0.00000000      20.11955261      20.11955261      15.80568409
        30.21158791      27.74527931      25.18944550      22.65516281      20.43550491      18.38151550      16.32099915      14.93202114      15.80568409
        21.66449928      17.77777863      15.00000000      12.22222233      10.55555630      10.59710693       9.92963219       9.27938557      12.05373383
        20.55555534      20.00000000      17.42278481      14.33384705       9.44444466       6.66666651       3.88888884       1.11111104       3.64044738
        33.11457443      30.80833817      27.93769455      24.35643768      19.93776894      14.95295429       9.96566200       7.73176527      12.84685135
        42.37435150      39.59614563      36.38043976      32.64879990      28.47854614      24.16504860      20.38151932      18.48690605      21.01107788
        49.60354614      46.56852341      43.03670120      39.02426147      34.70677185      30.36416817      26.26236916      23.36734200      22.38552666
        55.25304413      52.02412033      48.12842941      43.58039856      38.79989624      33.95093918      33.31681442      26.97802544      23.36734200
        59.61370468      56.28265381      52.08895493      49.06252289      45.19978333      39.18238449      35.65993881      30.98413849      26.97802544
        62.86966324      59.38526535      58.87570190      53.56578064      45.19978333      41.66490173      35.65993881      33.31681442      30.98413849
        66.30842590      64.83912659      62.05468369      58.87570190      53.56578064      41.66490173      35.65993881      35.65993881      30.98413849
        68.55593109      64.83912659      62.05468369      58.87570190      58.87570190      45.19978333      41.66490173      35.65993881      33.31681442
  botm  LAYERED
    INTERNAL  FACTOR  1.0
           0.00000000       0.00000000       0.00000000       0.00000000       0.00000000       0.00000000      15.11955261      15.11955261      10.80568409
          25.21158791      22.74527931      20.18944550      17.65516281      15.43550491      13.38151550      11.32099915       9.93202114      10.80568409
          16.66449928      12.77777863      10.00000000       7.22222233       5.55555630       5.59710693       4.92963219       4.27938557       7.05373383
          15.55555534      15.00000000      12.42278481       9.33384705       4.44444466       1.66666651      -1.11111116      -3.88888896      -1.35955262
          28.11457443      25.80833817      22.93769455      19.35643768      14.93776894       9.95295429       4.96566200       2.73176527       7.84685135
          37.37435150      34.59614563      31.38043976      27.64879990      23.47854614      19.16504860      15.38151932      13.48690605      16.01107788
          44.60354614      41.56852341      38.03670120      34.02426147      29.70677185      25.36416817      21.26236916      18.36734200      17.38552666
          50.25304413      47.02412033      43.12842941      38.58039856      33.79989624      28.95093918      28.31681442      21.97802544      18.36734200
          54.61370468      51.28265381      47.08895493      44.06252289      40.19978333      34.18238449      30.65993881      25.98413849      21.97802544
          57.86966324      54.38526535      53.87570190      48.56578064      40.19978333      36.66490173      30.65993881      28.31681442      25.98413849
          61.30842590      59.83912659      57.05468369      53.87570190      48.56578064      36.66490173      30.65993881      30.65993881      25.98413849
          63.55593109      59.83912659      57.05468369      53.87570190      53.87570190      40.19978333      36.66490173      30.65993881      28.31681442
    INTERNAL  FACTOR  1.0
           0.00000000       0.00000000       0.00000000       0.00000000       0.00000000       0.00000000       7.61955261       7.61955261       3.30568409
          17.71158791      15.24527931      12.68944550      10.15516281       7.93550491       5.88151550       3.82099915       2.43202114       3.30568409
           9.16449928       5.27777863       2.50000000      -0.27777767      -1.94444370      -1.90289307      -2.57036781      -3.22061443      -0.44626617
           8.05555534       7.50000000       4.92278481       1.83384705      -3.05555534      -5.83333349      -8.61111116     -11.38888896      -8.85955262
          20.61457443      18.30833817      15.43769455      11.85643768       7.43776894       2.45295429      -2.53433800      -4.76823473       0.34685135
          29.87435150      27.09614563      23.88043976      20.14879990      15.97854614      11.66504860       7.88151932       5.98690605       8.51107788
          37.10354614      34.06852341      30.53670120      26.52426147      22.20677185      17.86416817      13.76236916      10.86734200       9.88552666
          42.75304413      39.52412033      35.62842941      31.08039856      26.29989624      21.45093918      20.81681442      14.47802544      10.86734200
          47.11370468      43.78265381      39.58895493      36.56252289      32.69978333      26.68238449      23.15993881      18.48413849      14.47802544
          50.36966324      46.88526535      46.37570190      41.06578064      32.69978333      29.16490173      23.15993881      20.81681442      18.48413849
          53.80842590      52.33912659      49.55468369      46.37570190      41.06578064      29.16490173      23.15993881      23.15993881      18.48413849
          56.05593109      52.33912659      49.55468369      46.37570190      46.37570190      32.69978333      29.16490173      23.15993881      20.81681442
  idomain
    INTERNAL  FACTOR  1
      0  0  0  0  0  0  1  0  0
      1  1  1  1  1  1  1  1  1
      1  1  1  1  1  1  1  1  1
      1  1  1  1  1  1  1  1  1
      1  1  1  1  1  1  1  1  1
      1  1  1  1  1  1  1  1  1
      1  1  1  1  1  1  1  1  0
      1  1  1  1  1  1  1  0  0
      1  1  1  1  0  0  0  0  0
      1  1  1  0  0  0  0  0  0
      1  0  0  0  0  0  0  0  0
      0  0  0  0  0  0  0  0  0
      0  0  0  0  0  0  1  0  0
      1  1  1  1  1  1  1  1  1
      1  1  1  1  1  1  1  1  1
      1  1  1  1  1  1  1  1  1
      1  1  1  1  1  1  1  1  1
      1  1  1  1  1  1  1  1  1
      1  1  1  1  1  1  1  1  0
      1  1  1  1  1  1  1  0  0
      1  1  1  1  0  0  0  0  0
      1  1  1  0  0  0  0  0  0
      1  0  0  0  0  0  0  0  0
      0  0  0  0  0  0  0  0  0
END griddata

