# File generated by Flopy version 3.10.0.dev3 on 06/16/2025 at 07:15:29.
BEGIN options
  SAVE_FLOWS
  NEWTON  UNDER_RELAXATION
END options

BEGIN packages
  dis6  model_7.dis  dis
  ic6  model_7.ic  ic
  npf6  model_7.npf  npf
  sto6  model_7.sto  sto
  rch6  model_7.rcha  rcha_0
  drn6  model_7.drn  river
  drn6  model_7_0.drn  gwd
  oc6  model_7.oc  oc
END packages

