# File generated by Flopy version 3.10.0.dev3 on 06/16/2025 at 07:15:29.
BEGIN options
  auxiliary  depth
  AUXDEPTHNAME  depth
END options

BEGIN dimensions
  MAXBOUND  470
END dimensions

BEGIN period  1
  1 1 4 6.85948486E+01 1.00000000E+07 1.00000000E+00
  1 1 5 6.50582199E+01 1.00000000E+07 1.00000000E+00
  1 1 6 6.02180824E+01 1.00000000E+07 1.00000000E+00
  1 2 3 6.77634506E+01 1.00000000E+07 1.00000000E+00
  1 2 4 6.63262177E+01 1.00000000E+07 1.00000000E+00
  1 2 5 6.36447449E+01 1.00000000E+07 1.00000000E+00
  1 2 6 6.00226212E+01 1.00000000E+07 1.00000000E+00
  1 3 1 6.79046097E+01 1.00000000E+07 1.00000000E+00
  1 3 4 6.37363968E+01 1.00000000E+07 1.00000000E+00
  1 3 5 6.15720901E+01 1.00000000E+07 1.00000000E+00
  1 3 6 5.85492783E+01 1.00000000E+07 1.00000000E+00
  1 4 1 6.85180283E+01 1.00000000E+07 1.00000000E+00
  1 4 2 6.47120132E+01 1.00000000E+07 1.00000000E+00
  1 4 4 6.07389565E+01 1.00000000E+07 1.00000000E+00
  1 4 5 5.87276802E+01 1.00000000E+07 1.00000000E+00
  1 4 6 5.59880409E+01 1.00000000E+07 1.00000000E+00
  1 6 1 6.85194397E+01 1.00000000E+07 1.00000000E+00
  1 6 2 6.60013275E+01 1.00000000E+07 1.00000000E+00
  1 6 3 6.33835907E+01 1.00000000E+07 1.00000000E+00
  1 6 4 6.03503342E+01 1.00000000E+07 1.00000000E+00
  1 6 5 5.71094742E+01 1.00000000E+07 1.00000000E+00
  1 6 6 5.41300888E+01 1.00000000E+07 1.00000000E+00
  1 7 1 7.09514008E+01 1.00000000E+07 1.00000000E+00
  1 7 2 6.79693909E+01 1.00000000E+07 1.00000000E+00
  1 7 3 6.47763290E+01 1.00000000E+07 1.00000000E+00
  1 7 4 6.11624908E+01 1.00000000E+07 1.00000000E+00
  1 7 5 5.75093918E+01 1.00000000E+07 1.00000000E+00
  1 7 6 5.39800606E+01 1.00000000E+07 1.00000000E+00
  1 8 1 7.22369690E+01 1.00000000E+07 1.00000000E+00
  1 8 2 6.80239182E+01 1.00000000E+07 1.00000000E+00
  1 8 3 6.36096802E+01 1.00000000E+07 1.00000000E+00
  1 8 4 5.93411713E+01 1.00000000E+07 1.00000000E+00
  1 9 1 7.22276764E+01 1.00000000E+07 1.00000000E+00
  1 9 2 6.54595032E+01 1.00000000E+07 1.00000000E+00
  1 9 6 5.89796333E+01 1.00000000E+07 1.00000000E+00
  1 10 1 7.22440796E+01 1.00000000E+07 1.00000000E+00
  1 10 4 6.36704788E+01 1.00000000E+07 1.00000000E+00
  1 10 5 6.40045700E+01 1.00000000E+07 1.00000000E+00
  1 10 6 6.43901443E+01 1.00000000E+07 1.00000000E+00
  1 11 1 7.31844025E+01 1.00000000E+07 1.00000000E+00
  1 11 2 6.95112915E+01 1.00000000E+07 1.00000000E+00
  1 11 3 6.79397964E+01 1.00000000E+07 1.00000000E+00
  1 11 4 6.76505814E+01 1.00000000E+07 1.00000000E+00
  1 11 5 6.76713104E+01 1.00000000E+07 1.00000000E+00
  1 11 6 6.80040436E+01 1.00000000E+07 1.00000000E+00
  1 12 2 7.07592697E+01 1.00000000E+07 1.00000000E+00
  1 12 3 6.95713654E+01 1.00000000E+07 1.00000000E+00
  1 12 4 6.93403168E+01 1.00000000E+07 1.00000000E+00
  1 12 5 6.93845825E+01 1.00000000E+07 1.00000000E+00
  1 12 6 6.98302307E+01 1.00000000E+07 1.00000000E+00
END period  1

