# File generated by Flopy version 3.10.0.dev3 on 06/16/2025 at 10:05:45.
BEGIN options
END options

BEGIN griddata
  strt  LAYERED
    INTERNAL  FACTOR  1.0
          54.16123962      48.33333206      45.55555725      45.00000000       0.00000000       0.00000000
          55.81394577      50.37471771      45.96897125      42.77777863       0.00000000       0.00000000
          55.47606659      51.75616074      47.98077774      44.24906921      40.86238098       0.00000000
          53.10843658      49.71608353      46.67704010      43.68365860      40.47543335       0.00000000
          51.11111069      48.33333206      45.55555725      42.77777863      40.00000000       0.00000000
          51.83272171      48.59815216      45.55555725      45.00000000      46.92776108      46.42558670
          51.11111069      48.33333206      47.22222137      50.96562576      53.32507324      53.78060532
          52.22222137      53.72668076      55.88869858      57.92779922      59.42660522      59.97024155
          59.86957550      61.03429413      62.43316269      63.73913574      64.69684601      65.06093597
          65.47366333      66.33112335      67.31683350      68.22325134      68.87299347      69.05139923
          69.10647583      69.87551880      70.68721771      71.39953613      71.88513184      71.93553162
          71.04479218      71.85427856      72.64981079      73.31381989      73.73072815      73.71149445
          71.77478790      72.81832886      74.00769043      74.07347107      74.42408752      74.37804413
    INTERNAL  FACTOR  1.0
          54.16123962      48.33333206      45.55555725      45.00000000       0.00000000       0.00000000
          55.81394577      50.37471771      45.96897125      42.77777863       0.00000000       0.00000000
          55.47606659      51.75616074      47.98077774      44.24906921      40.86238098       0.00000000
          53.10843658      49.71608353      46.67704010      43.68365860      40.47543335       0.00000000
          51.11111069      48.33333206      45.55555725      42.77777863      40.00000000       0.00000000
          51.83272171      48.59815216      45.55555725      45.00000000      46.92776108      46.42558670
          51.11111069      48.33333206      47.22222137      50.96562576      53.32507324      53.78060532
          52.22222137      53.72668076      55.88869858      57.92779922      59.42660522      59.97024155
          59.86957550      61.03429413      62.43316269      63.73913574      64.69684601      65.06093597
          65.47366333      66.33112335      67.31683350      68.22325134      68.87299347      69.05139923
          69.10647583      69.87551880      70.68721771      71.39953613      71.88513184      71.93553162
          71.04479218      71.85427856      72.64981079      73.31381989      73.73072815      73.71149445
          71.77478790      72.81832886      74.00769043      74.07347107      74.42408752      74.37804413
END griddata

