# File generated by Flopy version 3.10.0.dev3 on 06/16/2025 at 10:05:45.
BEGIN options
  XORIGIN   85000.00000000
  YORIGIN       0.00000000
END options

BEGIN dimensions
  NLAY  2
  NROW  13
  NCOL  6
END dimensions

BEGIN griddata
  delr
    INTERNAL  FACTOR  1.0
      5000.00000000    5000.00000000    5000.00000000    5000.00000000    5000.00000000    5000.00000000
  delc
    INTERNAL  FACTOR  1.0
      5000.00000000    5000.00000000    5000.00000000    5000.00000000    5000.00000000    5000.00000000    5000.00000000    5000.00000000    5000.00000000    5000.00000000    5000.00000000    5000.00000000    5000.00000000
  top
    INTERNAL  FACTOR  1.0
        54.16123962      48.33333206      45.55555725      45.00000000       0.00000000       0.00000000
        55.81394577      50.37471771      45.96897125      42.77777863       0.00000000       0.00000000
        55.47606659      51.75616074      47.98077774      44.24906921      40.86238098       0.00000000
        53.10843658      49.71608353      46.67704010      43.68365860      40.47543335       0.00000000
        51.11111069      48.33333206      45.55555725      42.77777863      40.00000000       0.00000000
        51.83272171      48.59815216      45.55555725      45.00000000      46.92776108      46.42558670
        51.11111069      48.33333206      47.22222137      50.96562576      53.32507324      53.78060532
        52.22222137      53.72668076      55.88869858      57.92779922      59.42660522      59.97024155
        59.86957550      61.03429413      62.43316269      63.73913574      64.69684601      65.06093597
        65.47366333      66.33112335      67.31683350      68.22325134      68.87299347      69.05139923
        69.10647583      69.87551880      70.68721771      71.39953613      71.88513184      71.93553162
        71.04479218      71.85427856      72.64981079      73.31381989      73.73072815      73.71149445
        71.77478790      72.81832886      74.00769043      74.07347107      74.42408752      74.37804413
  botm  LAYERED
    INTERNAL  FACTOR  1.0
          49.16123962      43.33333206      40.55555725      40.00000000       0.00000000       0.00000000
          50.81394577      45.37471771      40.96897125      37.77777863       0.00000000       0.00000000
          50.47606659      46.75616074      42.98077774      39.24906921      35.86238098       0.00000000
          48.10843658      44.71608353      41.67704010      38.68365860      35.47543335       0.00000000
          46.11111069      43.33333206      40.55555725      37.77777863      35.00000000       0.00000000
          46.83272171      43.59815216      40.55555725      40.00000000      41.92776108      41.42558670
          46.11111069      43.33333206      42.22222137      45.96562576      48.32507324      48.78060532
          47.22222137      48.72668076      50.88869858      52.92779922      54.42660522      54.97024155
          54.86957550      56.03429413      57.43316269      58.73913574      59.69684601      60.06093597
          60.47366333      61.33112335      62.31683350      63.22325134      63.87299347      64.05139923
          64.10647583      64.87551880      65.68721771      66.39953613      66.88513184      66.93553162
          66.04479218      66.85427856      67.64981079      68.31381989      68.73072815      68.71149445
          66.77478790      67.81832886      69.00769043      69.07347107      69.42408752      69.37804413
    INTERNAL  FACTOR  1.0
          41.66123962      35.83333206      33.05555725      32.50000000       0.00000000       0.00000000
          43.31394577      37.87471771      33.46897125      30.27777863       0.00000000       0.00000000
          42.97606659      39.25616074      35.48077774      31.74906921      28.36238098       0.00000000
          40.60843658      37.21608353      34.17704010      31.18365860      27.97543335       0.00000000
          38.61111069      35.83333206      33.05555725      30.27777863      27.50000000       0.00000000
          39.33272171      36.09815216      33.05555725      32.50000000      34.42776108      33.92558670
          38.61111069      35.83333206      34.72222137      38.46562576      40.82507324      41.28060532
          39.72222137      41.22668076      43.38869858      45.42779922      46.92660522      47.47024155
          47.36957550      48.53429413      49.93316269      51.23913574      52.19684601      52.56093597
          52.97366333      53.83112335      54.81683350      55.72325134      56.37299347      56.55139923
          56.60647583      57.37551880      58.18721771      58.89953613      59.38513184      59.43553162
          58.54479218      59.35427856      60.14981079      60.81381989      61.23072815      61.21149445
          59.27478790      60.31832886      61.50769043      61.57347107      61.92408752      61.87804413
  idomain
    INTERNAL  FACTOR  1
      1  1  1  1  0  0
      1  1  1  1  0  0
      1  1  1  1  1  0
      1  1  1  1  1  0
      1  1  1  1  1  0
      1  1  1  1  1  1
      1  1  1  1  1  1
      1  1  1  1  1  1
      1  1  1  1  1  1
      1  1  1  1  1  1
      1  1  1  1  1  1
      1  1  1  1  1  1
      0  0  1  1  1  1
      1  1  1  1  0  0
      1  1  1  1  0  0
      1  1  1  1  1  0
      1  1  1  1  1  0
      1  1  1  1  1  0
      1  1  1  1  1  1
      1  1  1  1  1  1
      1  1  1  1  1  1
      1  1  1  1  1  1
      1  1  1  1  1  1
      1  1  1  1  1  1
      1  1  1  1  1  1
      0  0  1  1  1  1
END griddata

