# File generated by Flopy version 3.10.0.dev3 on 06/16/2025 at 10:05:45.
BEGIN options
  BUDGET  FILEOUT  model_7.cbc
  HEAD  FILEOUT  model_7.hds
END options

BEGIN period  1
  SAVE  head  all
  SAVE  budget  all
  PRINT  budget  all
END period  1

