# File generated by Flopy version 3.10.0.dev3 on 06/16/2025 at 07:15:29.
BEGIN options
  auxiliary  depth
  AUXDEPTHNAME  depth
END options

BEGIN dimensions
  MAXBOUND  470
END dimensions

BEGIN period  1
  1 3 1 6.69975662E+01 1.00000000E+07 1.00000000E+00
  1 3 2 6.65064545E+01 1.00000000E+07 1.00000000E+00
  1 4 1 6.56071777E+01 1.00000000E+07 1.00000000E+00
  1 4 2 6.53985901E+01 1.00000000E+07 1.00000000E+00
  1 4 3 6.51419373E+01 1.00000000E+07 1.00000000E+00
  1 4 4 6.46311035E+01 1.00000000E+07 1.00000000E+00
  1 4 5 6.36839600E+01 1.00000000E+07 1.00000000E+00
  1 4 6 6.33368416E+01 1.00000000E+07 1.00000000E+00
  1 5 1 6.12579727E+01 1.00000000E+07 1.00000000E+00
  1 5 2 6.25206032E+01 1.00000000E+07 1.00000000E+00
  1 5 3 6.31775589E+01 1.00000000E+07 1.00000000E+00
  1 5 4 6.31263084E+01 1.00000000E+07 1.00000000E+00
  1 5 5 6.24895859E+01 1.00000000E+07 1.00000000E+00
  1 5 6 6.14514084E+01 1.00000000E+07 1.00000000E+00
  1 5 7 6.00248146E+01 1.00000000E+07 1.00000000E+00
  1 5 8 5.88073463E+01 1.00000000E+07 1.00000000E+00
  1 6 1 5.55338249E+01 1.00000000E+07 1.00000000E+00
  1 6 2 5.84561653E+01 1.00000000E+07 1.00000000E+00
  1 6 3 5.99243279E+01 1.00000000E+07 1.00000000E+00
  1 6 4 6.04843216E+01 1.00000000E+07 1.00000000E+00
  1 6 5 6.00908089E+01 1.00000000E+07 1.00000000E+00
  1 6 6 5.93240891E+01 1.00000000E+07 1.00000000E+00
  1 6 7 5.82388077E+01 1.00000000E+07 1.00000000E+00
  1 6 8 5.68083153E+01 1.00000000E+07 1.00000000E+00
  1 6 9 5.48764381E+01 1.00000000E+07 1.00000000E+00
  1 6 10 5.28508873E+01 1.00000000E+07 1.00000000E+00
  1 6 11 5.09350433E+01 1.00000000E+07 1.00000000E+00
  1 6 12 5.07043724E+01 1.00000000E+07 1.00000000E+00
  1 7 2 5.41257019E+01 1.00000000E+07 1.00000000E+00
  1 7 3 5.58925133E+01 1.00000000E+07 1.00000000E+00
  1 7 4 5.65956078E+01 1.00000000E+07 1.00000000E+00
  1 7 5 5.64369354E+01 1.00000000E+07 1.00000000E+00
  1 7 6 5.58894157E+01 1.00000000E+07 1.00000000E+00
  1 7 7 5.51285248E+01 1.00000000E+07 1.00000000E+00
  1 7 8 5.41241646E+01 1.00000000E+07 1.00000000E+00
  1 7 9 5.28142204E+01 1.00000000E+07 1.00000000E+00
  1 7 10 5.12487564E+01 1.00000000E+07 1.00000000E+00
  1 7 11 4.94495621E+01 1.00000000E+07 1.00000000E+00
  1 7 12 4.73180008E+01 1.00000000E+07 1.00000000E+00
  1 7 13 4.53474541E+01 1.00000000E+07 1.00000000E+00
  1 8 2 4.99994812E+01 1.00000000E+07 1.00000000E+00
  1 8 3 5.11001282E+01 1.00000000E+07 1.00000000E+00
  1 8 4 5.15924225E+01 1.00000000E+07 1.00000000E+00
  1 8 5 5.13463593E+01 1.00000000E+07 1.00000000E+00
  1 8 6 5.09401741E+01 1.00000000E+07 1.00000000E+00
  1 8 7 5.05496902E+01 1.00000000E+07 1.00000000E+00
  1 8 8 5.00808220E+01 1.00000000E+07 1.00000000E+00
  1 8 9 4.93262482E+01 1.00000000E+07 1.00000000E+00
  1 8 10 4.81636848E+01 1.00000000E+07 1.00000000E+00
  1 8 11 4.65556488E+01 1.00000000E+07 1.00000000E+00
  1 8 12 4.44727554E+01 1.00000000E+07 1.00000000E+00
  1 8 13 4.18366318E+01 1.00000000E+07 1.00000000E+00
  1 8 14 3.86796951E+01 1.00000000E+07 1.00000000E+00
  1 8 15 3.79813690E+01 1.00000000E+07 1.00000000E+00
  1 9 9 4.44759445E+01 1.00000000E+07 1.00000000E+00
  1 9 10 4.37400551E+01 1.00000000E+07 1.00000000E+00
  1 9 11 4.23246994E+01 1.00000000E+07 1.00000000E+00
  1 9 12 4.03245544E+01 1.00000000E+07 1.00000000E+00
  1 9 13 3.78223572E+01 1.00000000E+07 1.00000000E+00
  1 9 14 3.48443336E+01 1.00000000E+07 1.00000000E+00
  1 9 15 3.13207054E+01 1.00000000E+07 1.00000000E+00
  1 9 16 2.87921181E+01 1.00000000E+07 1.00000000E+00
  1 10 11 3.67424393E+01 1.00000000E+07 1.00000000E+00
  1 10 12 3.46960526E+01 1.00000000E+07 1.00000000E+00
  1 10 13 3.22500381E+01 1.00000000E+07 1.00000000E+00
  1 10 14 2.95370674E+01 1.00000000E+07 1.00000000E+00
  1 10 15 2.65834141E+01 1.00000000E+07 1.00000000E+00
  1 10 16 2.32641621E+01 1.00000000E+07 1.00000000E+00
END period  1

