# File generated by Flopy version 3.10.0.dev3 on 06/16/2025 at 07:15:29.
BEGIN options
END options

BEGIN dimensions
  MAXBOUND  88
END dimensions

BEGIN period  1
  1 5 1 5.11111107E+01 2.47044993E+04
  1 5 2 4.83333321E+01 2.38295268E+04
  1 5 3 4.55555573E+01 2.28888763E+04
  1 5 4 4.27777786E+01 2.20904756E+04
  1 5 5 4.00000000E+01 2.14149942E+04
  1 5 4 4.27777786E+01 2.49101053E+04
  1 5 5 4.00000000E+01 4.09860131E+03
  1 6 3 4.55555573E+01 2.58261190E+04
  1 6 4 4.50000000E+01 3.70585975E+03
  1 7 1 5.11111107E+01 1.54260264E+04
  1 7 2 4.83333321E+01 2.69250691E+04
  1 7 3 4.72222214E+01 7.13920629E+03
  1 8 1 5.22222214E+01 1.23181562E+04
  1 1 2 4.83333321E+01 1.71761689E+04
  1 1 3 4.55555573E+01 2.50848438E+04
  1 1 4 4.50000000E+01 5.18962780E+02
  1 2 4 4.27777786E+01 2.34960605E+04
END period  1

