# File generated by Flopy version 3.10.0.dev3 on 06/16/2025 at 07:15:29.
BEGIN options
END options

BEGIN dimensions
  MAXBOUND  88
END dimensions

BEGIN period  1
  1 2 1 6.77777786E+01 3.38129726E+04
  1 2 2 6.66666641E+01 1.25280022E+04
  1 3 2 6.50000000E+01 3.53171006E+04
  1 3 3 6.44444427E+01 4.63777529E+02
  1 4 3 6.22222214E+01 3.56488689E+04
  1 5 3 6.22222214E+01 6.58430698E+03
  1 5 4 5.94444427E+01 2.85528019E+04
  1 5 5 5.66666679E+01 2.62080602E+04
  1 5 6 5.38888893E+01 2.51867920E+04
  1 5 1 6.77777786E+01 2.95757994E+04
  1 5 2 6.50000000E+01 2.84832463E+04
  1 5 3 6.22222214E+01 2.89514346E+04
  1 5 4 5.94444427E+01 1.49662103E+03
  1 8 5 5.66666679E+01 2.58845903E+04
  1 8 6 5.38888893E+01 2.68458517E+04
  1 9 3 6.22222214E+01 2.38537289E+04
  1 9 4 5.94444427E+01 3.07110096E+04
  1 9 5 5.88888893E+01 2.80011806E+03
  1 10 2 6.50000000E+01 1.21088614E+04
  1 10 3 6.38888893E+01 6.72903328E+03
END period  1

