# File generated by Flopy version 3.10.0.dev3 on 06/16/2025 at 07:15:29.
BEGIN options
END options

BEGIN griddata
  strt  LAYERED
    INTERNAL  FACTOR  1.0
          45.59077835      44.97950363      44.55158234      44.52327728      44.76303482       0.00000000       0.00000000
          40.00000000      37.22222137      34.44444275      33.88888931      36.47253418      38.27091599      38.60053635
           0.00000000      37.66863632      34.64134598      31.66666794      29.44444466      30.80040932      31.95338631
           0.00000000      37.46049500      34.44444275      31.86635780      28.88888931      26.11111069      24.78235817
           0.00000000      37.22222137      36.15496063      31.66666794      28.88888931      26.11111069      23.33333206
           0.00000000       0.00000000      44.97849274      42.73672867      40.36610413      37.95243073      35.49191666
           0.00000000       0.00000000      52.81556320      51.26879883      49.36273956      47.22244263      44.88937759
           0.00000000       0.00000000      59.28887177      58.08128738      56.46199417      54.50263214      52.22443771
           0.00000000       0.00000000      64.50473022      63.47613907      62.02780533      60.18647766      57.94366837
           0.00000000       0.00000000      68.54328156      67.61442566      66.27883911      64.52954865      62.32903290
           0.00000000       0.00000000      71.44788361      70.58512115      69.34431458      67.69616699      65.56447601
           0.00000000       0.00000000      73.23657227      72.42575073      71.28643799      69.78900909      67.82201385
           0.00000000       0.00000000      73.90922546      73.12643433      72.08648682      71.51026917      70.19281006
    INTERNAL  FACTOR  1.0
          45.59077835      44.97950363      44.55158234      44.52327728      44.76303482       0.00000000       0.00000000
          40.00000000      37.22222137      34.44444275      33.88888931      36.47253418      38.27091599      38.60053635
           0.00000000      37.66863632      34.64134598      31.66666794      29.44444466      30.80040932      31.95338631
           0.00000000      37.46049500      34.44444275      31.86635780      28.88888931      26.11111069      24.78235817
           0.00000000      37.22222137      36.15496063      31.66666794      28.88888931      26.11111069      23.33333206
           0.00000000       0.00000000      44.97849274      42.73672867      40.36610413      37.95243073      35.49191666
           0.00000000       0.00000000      52.81556320      51.26879883      49.36273956      47.22244263      44.88937759
           0.00000000       0.00000000      59.28887177      58.08128738      56.46199417      54.50263214      52.22443771
           0.00000000       0.00000000      64.50473022      63.47613907      62.02780533      60.18647766      57.94366837
           0.00000000       0.00000000      68.54328156      67.61442566      66.27883911      64.52954865      62.32903290
           0.00000000       0.00000000      71.44788361      70.58512115      69.34431458      67.69616699      65.56447601
           0.00000000       0.00000000      73.23657227      72.42575073      71.28643799      69.78900909      67.82201385
           0.00000000       0.00000000      73.90922546      73.12643433      72.08648682      71.51026917      70.19281006
END griddata

