# File generated by Flopy version 3.10.0.dev3 on 06/16/2025 at 07:15:29.
BEGIN options
  XORIGIN   55000.00000000
  YORIGIN       0.00000000
END options

BEGIN dimensions
  NLAY  2
  NROW  13
  NCOL  6
END dimensions

BEGIN griddata
  delr
    INTERNAL  FACTOR  1.0
      5000.00000000    5000.00000000    5000.00000000    5000.00000000    5000.00000000    5000.00000000
  delc
    INTERNAL  FACTOR  1.0
      5000.00000000    5000.00000000    5000.00000000    5000.00000000    5000.00000000    5000.00000000    5000.00000000    5000.00000000    5000.00000000    5000.00000000    5000.00000000    5000.00000000    5000.00000000
  top
    INTERNAL  FACTOR  1.0
         0.00000000       0.00000000       0.00000000      69.09484863      65.55821991      60.71808243
        67.77777863      66.66666412      68.26345062      66.82621765      64.14474487      60.52262115
        68.40460968      65.00000000      64.44444275      64.23639679      62.07209015      59.04927826
        69.01802826      65.21201324      62.22222137      61.23895645      59.22768021      56.48804092
        67.77777863      65.00000000      62.22222137      59.44444275      56.66666794      53.88888931
        69.01943970      66.50132751      63.88359070      60.85033417      57.60947418      54.63008881
        71.45140076      68.46939087      65.27632904      61.66249084      58.00939178      54.48006058
        72.73696899      68.52391815      64.10968018      59.84117126      56.66666794      53.88888931
        72.72767639      65.95950317      62.22222137      59.44444275      58.88888931      59.47963333
        72.74407959      65.00000000      63.88888931      64.17047882      64.50457001      64.89014435
        73.68440247      70.01129150      68.43979645      68.15058136      68.17131042      68.50404358
        74.19193268      71.25926971      70.07136536      69.84031677      69.88458252      70.33023071
        74.19193268      71.48468018      69.99037933      69.93244934      70.30052185      71.39093018
  botm  LAYERED
    INTERNAL  FACTOR  1.0
           0.00000000       0.00000000       0.00000000      64.09484863      60.55821991      55.71808243
          62.77777863      61.66666412      63.26345062      61.82621765      59.14474487      55.52262115
          63.40460968      60.00000000      59.44444275      59.23639679      57.07209015      54.04927826
          64.01802826      60.21201324      57.22222137      56.23895645      54.22768021      51.48804092
          62.77777863      60.00000000      57.22222137      54.44444275      51.66666794      48.88888931
          64.01943970      61.50132751      58.88359070      55.85033417      52.60947418      49.63008881
          66.45140076      63.46939087      60.27632904      56.66249084      53.00939178      49.48006058
          67.73696899      63.52391815      59.10968018      54.84117126      51.66666794      48.88888931
          67.72767639      60.95950317      57.22222137      54.44444275      53.88888931      54.47963333
          67.74407959      60.00000000      58.88888931      59.17047882      59.50457001      59.89014435
          68.68440247      65.01129150      63.43979645      63.15058136      63.17131042      63.50404358
          69.19193268      66.25926971      65.07136536      64.84031677      64.88458252      65.33023071
          69.19193268      66.48468018      64.99037933      64.93244934      65.30052185      66.39093018
    INTERNAL  FACTOR  1.0
           0.00000000       0.00000000       0.00000000      56.59484863      53.05821991      48.21808243
          55.27777863      54.16666412      55.76345062      54.32621765      51.64474487      48.02262115
          55.90460968      52.50000000      51.94444275      51.73639679      49.57209015      46.54927826
          56.51802826      52.71201324      49.72222137      48.73895645      46.72768021      43.98804092
          55.27777863      52.50000000      49.72222137      46.94444275      44.16666794      41.38888931
          56.51943970      54.00132751      51.38359070      48.35033417      45.10947418      42.13008881
          58.95140076      55.96939087      52.77632904      49.16249084      45.50939178      41.98006058
          60.23696899      56.02391815      51.60968018      47.34117126      44.16666794      41.38888931
          60.22767639      53.45950317      49.72222137      46.94444275      46.38888931      46.97963333
          60.24407959      52.50000000      51.38888931      51.67047882      52.00457001      52.39014435
          61.18440247      57.51129150      55.93979645      55.65058136      55.67131042      56.00404358
          61.69193268      58.75926971      57.57136536      57.34031677      57.38458252      57.83023071
          61.69193268      58.98468018      57.49037933      57.43244934      57.80052185      58.89093018
  idomain
    INTERNAL  FACTOR  1
      0  0  0  1  1  1
      1  1  1  1  1  1
      1  1  1  1  1  1
      1  1  1  1  1  1
      1  1  1  1  1  1
      1  1  1  1  1  1
      1  1  1  1  1  1
      1  1  1  1  1  1
      1  1  1  1  1  1
      1  1  1  1  1  1
      1  1  1  1  1  1
      0  1  1  1  1  1
      0  0  0  0  0  0
      0  0  0  1  1  1
      1  1  1  1  1  1
      1  1  1  1  1  1
      1  1  1  1  1  1
      1  1  1  1  1  1
      1  1  1  1  1  1
      1  1  1  1  1  1
      1  1  1  1  1  1
      1  1  1  1  1  1
      1  1  1  1  1  1
      1  1  1  1  1  1
      0  1  1  1  1  1
      0  0  0  0  0  0
END griddata

