# File generated by Flopy version 3.10.0.dev3 on 06/16/2025 at 07:15:29.
BEGIN options
  auxiliary  angldegx  cdist
  NEWTON
END options

BEGIN dimensions
  NEXG  6
END dimensions

BEGIN exchangedata
  1 1 2  1 8 1  1    2500.00000000    2500.00000000    5000.00000000      90.00000000    5000.00000000
  2 1 2  2 8 1  1    2500.00000000    2500.00000000    5000.00000000      90.00000000    5000.00000000
  1 1 3  1 8 2  1    2500.00000000    2500.00000000    5000.00000000      90.00000000    5000.00000000
  2 1 3  2 8 2  1    2500.00000000    2500.00000000    5000.00000000      90.00000000    5000.00000000
  1 1 4  1 8 3  1    2500.00000000    2500.00000000    5000.00000000      90.00000000    5000.00000000
  2 1 4  2 8 3  1    2500.00000000    2500.00000000    5000.00000000      90.00000000    5000.00000000
END exchangedata

