# File generated by Flopy version 3.10.0.dev3 on 06/16/2025 at 10:05:45.
BEGIN options
  auxiliary  angldegx  cdist
  NEWTON
END options

BEGIN dimensions
  NEXG  24
END dimensions

BEGIN exchangedata
  1 1 9  1 9 9  1    2500.00000000    2500.00000000    5000.00000000      90.00000000    5000.00000000
  2 1 9  2 9 9  1    2500.00000000    2500.00000000    5000.00000000      90.00000000    5000.00000000
  1 1 9  1 10 8  1    2500.00000000    2500.00000000    5000.00000000     180.00000000    5000.00000000
  2 1 9  2 10 8  1    2500.00000000    2500.00000000    5000.00000000     180.00000000    5000.00000000
  1 2 8  1 10 8  1    2500.00000000    2500.00000000    5000.00000000      90.00000000    5000.00000000
  2 2 8  2 10 8  1    2500.00000000    2500.00000000    5000.00000000      90.00000000    5000.00000000
  1 2 8  1 11 7  1    2500.00000000    2500.00000000    5000.00000000     180.00000000    5000.00000000
  2 2 8  2 11 7  1    2500.00000000    2500.00000000    5000.00000000     180.00000000    5000.00000000
  1 3 8  1 12 7  1    2500.00000000    2500.00000000    5000.00000000     180.00000000    5000.00000000
  2 3 8  2 12 7  1    2500.00000000    2500.00000000    5000.00000000     180.00000000    5000.00000000
  1 4 1  1 12 1  1    2500.00000000    2500.00000000    5000.00000000      90.00000000    5000.00000000
  2 4 1  2 12 1  1    2500.00000000    2500.00000000    5000.00000000      90.00000000    5000.00000000
  1 4 2  1 12 2  1    2500.00000000    2500.00000000    5000.00000000      90.00000000    5000.00000000
  2 4 2  2 12 2  1    2500.00000000    2500.00000000    5000.00000000      90.00000000    5000.00000000
  1 4 3  1 12 3  1    2500.00000000    2500.00000000    5000.00000000      90.00000000    5000.00000000
  2 4 3  2 12 3  1    2500.00000000    2500.00000000    5000.00000000      90.00000000    5000.00000000
  1 4 4  1 12 4  1    2500.00000000    2500.00000000    5000.00000000      90.00000000    5000.00000000
  2 4 4  2 12 4  1    2500.00000000    2500.00000000    5000.00000000      90.00000000    5000.00000000
  1 4 5  1 12 5  1    2500.00000000    2500.00000000    5000.00000000      90.00000000    5000.00000000
  2 4 5  2 12 5  1    2500.00000000    2500.00000000    5000.00000000      90.00000000    5000.00000000
  1 4 6  1 12 6  1    2500.00000000    2500.00000000    5000.00000000      90.00000000    5000.00000000
  2 4 6  2 12 6  1    2500.00000000    2500.00000000    5000.00000000      90.00000000    5000.00000000
  1 4 7  1 12 7  1    2500.00000000    2500.00000000    5000.00000000      90.00000000    5000.00000000
  2 4 7  2 12 7  1    2500.00000000    2500.00000000    5000.00000000      90.00000000    5000.00000000
END exchangedata

