# File generated by Flopy version 3.10.0.dev3 on 06/16/2025 at 10:05:45.
BEGIN options
  auxiliary  angldegx  cdist
  NEWTON
END options

BEGIN dimensions
  NEXG  24
END dimensions

BEGIN exchangedata
  1 1 1  1 1 6  1    2500.00000000    2500.00000000    5000.00000000     180.00000000    5000.00000000
  2 1 1  2 1 6  1    2500.00000000    2500.00000000    5000.00000000     180.00000000    5000.00000000
  1 2 1  1 2 6  1    2500.00000000    2500.00000000    5000.00000000     180.00000000    5000.00000000
  2 2 1  2 2 6  1    2500.00000000    2500.00000000    5000.00000000     180.00000000    5000.00000000
  1 3 1  1 3 6  1    2500.00000000    2500.00000000    5000.00000000     180.00000000    5000.00000000
  2 3 1  2 3 6  1    2500.00000000    2500.00000000    5000.00000000     180.00000000    5000.00000000
  1 4 1  1 4 6  1    2500.00000000    2500.00000000    5000.00000000     180.00000000    5000.00000000
  2 4 1  2 4 6  1    2500.00000000    2500.00000000    5000.00000000     180.00000000    5000.00000000
  1 5 1  1 5 6  1    2500.00000000    2500.00000000    5000.00000000     180.00000000    5000.00000000
  2 5 1  2 5 6  1    2500.00000000    2500.00000000    5000.00000000     180.00000000    5000.00000000
  1 6 1  1 6 6  1    2500.00000000    2500.00000000    5000.00000000     180.00000000    5000.00000000
  2 6 1  2 6 6  1    2500.00000000    2500.00000000    5000.00000000     180.00000000    5000.00000000
  1 7 1  1 7 6  1    2500.00000000    2500.00000000    5000.00000000     180.00000000    5000.00000000
  2 7 1  2 7 6  1    2500.00000000    2500.00000000    5000.00000000     180.00000000    5000.00000000
  1 8 1  1 8 6  1    2500.00000000    2500.00000000    5000.00000000     180.00000000    5000.00000000
  2 8 1  2 8 6  1    2500.00000000    2500.00000000    5000.00000000     180.00000000    5000.00000000
  1 9 1  1 9 6  1    2500.00000000    2500.00000000    5000.00000000     180.00000000    5000.00000000
  2 9 1  2 9 6  1    2500.00000000    2500.00000000    5000.00000000     180.00000000    5000.00000000
  1 10 1  1 10 6  1    2500.00000000    2500.00000000    5000.00000000     180.00000000    5000.00000000
  2 10 1  2 10 6  1    2500.00000000    2500.00000000    5000.00000000     180.00000000    5000.00000000
  1 11 1  1 11 6  1    2500.00000000    2500.00000000    5000.00000000     180.00000000    5000.00000000
  2 11 1  2 11 6  1    2500.00000000    2500.00000000    5000.00000000     180.00000000    5000.00000000
  1 12 1  1 12 6  1    2500.00000000    2500.00000000    5000.00000000     180.00000000    5000.00000000
  2 12 1  2 12 6  1    2500.00000000    2500.00000000    5000.00000000     180.00000000    5000.00000000
END exchangedata

