# File generated by Flopy version 3.10.0.dev3 on 06/13/2025 at 08:25:55.
BEGIN options
  BUDGET  FILEOUT  model.cbc
  HEAD  FILEOUT  model.hds
END options

BEGIN period  1
  SAVE  head  all
  SAVE  budget  all
  PRINT  budget  all
END period  1

