# Name file for MODFLOW-2005, generated by Flopy version 3.9.1.
#xll:0.0; yll:0.0; rotation:0.0; units:centimeters; lenuni:3; start_datetime:1-1-1970
LIST               2  mf04_mf.list
DIS               11  mf04_mf.dis
BAS6              13  mf04_mf.bas
LPF               15  mf04_mf.lpf
PCG               27  mf04_mf.pcg
LMT6              30  mf04_mf.lmt6
OC                14  mf04_mf.oc
DATA(BINARY)      51  mf04_mf.hds REPLACE
