# Name file for MODFLOW-2005, generated by Flopy version 3.9.1.
#xll:0.0; yll:0.0; rotation:0.0; units:meters; lenuni:2; start_datetime:1-1-1970
LIST               2  p07_mf.list
DIS               11  p07_mf.dis
BAS6              13  p07_mf.bas
LPF               15  p07_mf.lpf
WEL               20  p07_mf.wel
PCG               27  p07_mf.pcg
LMT6              30  p07_mf.lmt6
