# Name file for MT3DMS, generated by Flopy version 3.9.1.
LIST              16  p07_mt.list
FTL               10  mt3d_link.ftl 
BTN               31  p07_mt.btn
ADV               32  p07_mt.adv
DSP               33  p07_mt.dsp
SSM               34  p07_mt.ssm
GCG               35  p07_mt.gcg
