# File generated by Flopy version 3.9.1 on 02/28/2025 at 09:58:28.
BEGIN options
END options

BEGIN griddata
  strt
    CONSTANT       0.00000000
END griddata

