# File generated by Flopy version 3.9.1 on 07/08/2025 at 08:32:20.
BEGIN options
  BUDGET  FILEOUT  model.cbc
  HEAD  FILEOUT  model.hds
END options

BEGIN period  1
  SAVE  HEAD  ALL
  SAVE  BUDGET  ALL
  PRINT  BUDGET  ALL
END period  1

