# File generated by Flopy version 3.9.1 on 07/08/2025 at 08:32:20.
BEGIN options
  PRINT_OPTION  summary
  COMPLEXITY  simple
  CSV_OUTER_OUTPUT  FILEOUT  outer.csv
  CSV_INNER_OUTPUT  FILEOUT  inner.csv
END options

BEGIN nonlinear
  OUTER_DVCLOSE  1.00000000E-04
  OUTER_MAXIMUM  1000
END nonlinear

BEGIN linear
  INNER_MAXIMUM  100
  INNER_DVCLOSE  1.00000000E-05
  LINEAR_ACCELERATION  bicgstab
  RELAXATION_FACTOR       0.00000000
  PRECONDITIONER_LEVELS  2
END linear

