# File generated by Flopy version 3.9.1 on 06/21/2025 at 15:04:17.
BEGIN options
  BUDGET  FILEOUT  ex-gwf-lak-p02.cbc
  HEAD  FILEOUT  ex-gwf-lak-p02.hds
END options

BEGIN period  1
  SAVE  HEAD  LAST
  SAVE  BUDGET  LAST
END period  1

