# File generated by Flopy version 3.9.1 on 06/21/2025 at 15:04:17.
BEGIN options
  READASARRAYS
END options

BEGIN period  1
  recharge
    CONSTANT       0.01160000
END period  1

