# File generated by Flopy version 3.9.1 on 06/21/2025 at 15:04:17.
BEGIN options
  DIGITS  10
  PRINT_INPUT
END options

BEGIN continuous  FILEOUT  ex-gwf-lak-p02.lak.obs.csv
  lake1  stage  1
  lake2  stage  2
END continuous  FILEOUT  ex-gwf-lak-p02.lak.obs.csv

