# File generated by Flopy version 3.9.1 on 06/21/2025 at 15:04:17.
BEGIN options
  SAVE_SPECIFIC_DISCHARGE
END options

BEGIN griddata
  icelltype
    CONSTANT  1
  k
    CONSTANT      30.00000000
  k33
    CONSTANT      30.00000000
END griddata

