# File generated by Flopy version 3.9.1 on 06/21/2025 at 15:04:17.
BEGIN options
  TIME_UNITS  days
END options

BEGIN dimensions
  NPER  1
END dimensions

BEGIN perioddata
    1500.00000000  200       1.00500000
END perioddata

