# File generated by Flopy version 3.8.2 on 01/30/2025 at 09:09:01.
BEGIN options
  SAVE_FLOWS
  K33OVERK
END options

BEGIN griddata
  icelltype
    CONSTANT  0
  k  LAYERED
    OPEN/CLOSE  'GMS_005_K1.dat'  FACTOR  1.0
    OPEN/CLOSE  'GMS_006_K2.dat'  FACTOR  1.0
    OPEN/CLOSE  'GMS_007_K3.dat'  FACTOR  1.0
  k33
    CONSTANT       0.10000000
END griddata

