# File generated by Flopy version 3.8.2 on 01/30/2025 at 09:09:01.
BEGIN options
  XORIGIN  1.51676915E+06
  YORIGIN  5.03357779E+06
  ANGROT      14.00000000
END options

BEGIN dimensions
  NLAY  3
  NROW  83
  NCOL  96
END dimensions

BEGIN griddata
  delr
    CONSTANT      50.00000000
  delc
    CONSTANT      50.00000000
  top
    OPEN/CLOSE  'GMS_001_L0.dat'  FACTOR  1.0
  botm  LAYERED
    OPEN/CLOSE  'GMS_002_L1.dat'  FACTOR  1.0
    OPEN/CLOSE  'GMS_003_L2.dat'  FACTOR  1.0
    OPEN/CLOSE  'GMS_004_L3.dat'  FACTOR  1.0
END griddata

