# File generated by Flopy version 3.8.2 on 01/30/2025 at 09:09:01.
BEGIN options
  PRINT_FLOWS
  SAVE_FLOWS
END options

BEGIN packages
  DIS6  Symple_03.dis  dis
  RCH6  Symple_03.rcha  rcha_0
  NPF6  Symple_03.npf  npf
  IC6  Symple_03.ic  ic
  OC6  Symple_03.oc  oc
END packages

