# File generated by Flopy version 3.9.1 on 05/20/2025 at 10:30:11.
BEGIN options
  READASARRAYS
END options

BEGIN period  1
  recharge
    CONSTANT       0.00456600
END period  1

