# File generated by Flopy version 3.9.1 on 06/26/2025 at 10:48:15.
BEGIN options
  LENGTH_UNITS  meters
END options

BEGIN dimensions
  NLAY  1
  NROW  1
  NCOL  3
END dimensions

BEGIN griddata
  delr
    CONSTANT       1.00000000
  delc
    CONSTANT       1.00000000
  top
    CONSTANT       0.00000000
  botm
    CONSTANT   -1000.00000000
END griddata

