# File generated by Flopy version 3.9.1 on 05/18/2025 at 06:54:33.
BEGIN options
  TIME_UNITS  days
END options

BEGIN dimensions
  NPER  1
END dimensions

BEGIN perioddata
    5000.00000000  100       1.02000000
END perioddata

