# File generated by Flopy version 3.9.1 on 05/05/2025 at 06:09:36.
BEGIN options
END options

BEGIN griddata
  iconvert
    CONSTANT  1
  ss
    CONSTANT  3.00000000E-04
  sy
    CONSTANT       0.20000000
END griddata

