# File generated by Flopy version 3.9.1 on 06/23/2025 at 19:35:02.
BEGIN options
  SAVE_SPECIFIC_DISCHARGE
END options

BEGIN griddata
  icelltype
    CONSTANT  1
  k
    CONSTANT      30.00000000
  k33  LAYERED
    CONSTANT    1179.00000000
    CONSTANT      30.00000000
    CONSTANT      30.00000000
    CONSTANT      30.00000000
    CONSTANT      30.00000000
END griddata

