# File generated by Flopy version 3.9.1 on 05/05/2025 at 06:09:36.
BEGIN options
END options

BEGIN continuous  FILEOUT  ex-gwf-lak-p01.gwf.obs.csv
  A  head  1 4 4
  B  head  1 14 14
END continuous  FILEOUT  ex-gwf-lak-p01.gwf.obs.csv

