# File generated by Flopy version 3.9.1 on 05/18/2025 at 06:54:33.
BEGIN options
END options

BEGIN griddata
  strt
    CONSTANT     115.00000000
END griddata

