# File generated by Flopy version 3.9.1 on 05/18/2025 at 06:54:33.
BEGIN options
  DIGITS  10
  PRINT_INPUT
END options

BEGIN continuous  FILEOUT  ex-gwf-lak-p01.lak.obs.csv
  stage  stage  1
END continuous  FILEOUT  ex-gwf-lak-p01.lak.obs.csv

