# File generated by Flopy version 3.9.1 on 06/23/2025 at 19:35:02.
BEGIN options
END options

BEGIN griddata
  strt
    CONSTANT     115.00000000
END griddata

