# File generated by Flopy version 3.9.1 on 06/23/2025 at 19:35:02.
BEGIN options
  READASARRAYS
END options

BEGIN period  1
  recharge
    CONSTANT       0.01160000
END period  1

