# File generated by Flopy version 3.9.1 on 05/05/2025 at 06:09:36.
BEGIN options
END options

BEGIN timing
  TDIS6  ex-gwf-lak-p01.tdis
END timing

BEGIN models
  gwf6  ex-gwf-lak-p01.nam  ex-gwf-lak-p01
END models

BEGIN exchanges
END exchanges

BEGIN solutiongroup  1
  ims6  ex-gwf-lak-p01.ims  ex-gwf-lak-p01
END solutiongroup  1

