# File generated by Flopy version 3.9.1 on 03/05/2025 at 07:08:02.
BEGIN options
  SAVE_FLOWS
END options

BEGIN packages
  dis6  gwf-outer.dis  dis
  ic6  gwf-outer.ic  ic
  npf6  gwf-outer.npf  npf
  sto6  gwf-outer.sto  sto
  chd6  gwf-outer.chd  chd-1
  rch6  gwf-outer.rch  rch-1
  oc6  gwf-outer.oc  oc
END packages

