# File generated by Flopy version 3.9.1 on 03/05/2025 at 07:08:02.
BEGIN options
  SAVE_FLOWS
END options

BEGIN packages
  dis6  gwt-outer.dis  dis
  ic6  gwt-outer.ic  ic
  adv6  gwt-outer.adv  adv
  dsp6  gwt-outer.dsp  dsp-1
  mst6  gwt-outer.mst  mst-1
  ssm6  gwt-outer.ssm  ssm
  oc6  gwt-outer.oc  oc
END packages

