# File generated by Flopy version 3.10.0.dev3 on 06/15/2025 at 08:21:40.
BEGIN options
END options

BEGIN griddata
  strt  LAYERED
    INTERNAL  FACTOR  1.0
         101.09039307     101.13024139     101.25666046     101.25666046     101.28726959     101.23593903     101.02922058     100.70333862      99.61818695
         101.72914124     101.09039307     101.13024139     101.25666046     101.28726959     101.23593903     101.02922058     100.49099731      99.48647308
         102.49778748     101.72914124     101.09039307     101.13024139     101.25666046     101.22657013     100.83457947     100.08406830      98.99633026
         102.76670074     102.49778748     101.72914124     101.09039307     100.99311066     100.49706268      99.74761963      98.77453613      97.55210876
         103.35204315     102.76670074     101.97846222     101.02243805      99.91932678      98.74380493      97.61303711      96.43305206      95.10495758
         103.61625671     103.35204315     101.97846222     100.13890839      97.61560059      95.61146545      94.22698975      92.92340851      91.53657532
         104.34490204     103.47116852     102.05284882      98.67810822      93.12428284      90.47088623      89.46460724      88.11869049      86.67359924
         105.29252625     104.01184845     102.03530884      98.10408020      90.01431274      84.44444275      83.62719727      81.87342834      80.28450775
         105.53228760     104.49772644     102.19071198      98.24797821      91.94060516      84.44444275      81.66666412      78.88888550      76.11111450
         106.15061951     104.95815277     102.65837860      99.16442108      94.57428741      89.65061951      85.35812378      81.69876099      78.12384796
    INTERNAL  FACTOR  1.0
         101.09039307     101.13024139     101.25666046     101.25666046     101.28726959     101.23593903     101.02922058     100.70333862      99.61818695
         101.72914124     101.09039307     101.13024139     101.25666046     101.28726959     101.23593903     101.02922058     100.49099731      99.48647308
         102.49778748     101.72914124     101.09039307     101.13024139     101.25666046     101.22657013     100.83457947     100.08406830      98.99633026
         102.76670074     102.49778748     101.72914124     101.09039307     100.99311066     100.49706268      99.74761963      98.77453613      97.55210876
         103.35204315     102.76670074     101.97846222     101.02243805      99.91932678      98.74380493      97.61303711      96.43305206      95.10495758
         103.61625671     103.35204315     101.97846222     100.13890839      97.61560059      95.61146545      94.22698975      92.92340851      91.53657532
         104.34490204     103.47116852     102.05284882      98.67810822      93.12428284      90.47088623      89.46460724      88.11869049      86.67359924
         105.29252625     104.01184845     102.03530884      98.10408020      90.01431274      84.44444275      83.62719727      81.87342834      80.28450775
         105.53228760     104.49772644     102.19071198      98.24797821      91.94060516      84.44444275      81.66666412      78.88888550      76.11111450
         106.15061951     104.95815277     102.65837860      99.16442108      94.57428741      89.65061951      85.35812378      81.69876099      78.12384796
END griddata

