# File generated by Flopy version 3.10.0.dev3 on 06/15/2025 at 08:21:40.
BEGIN options
  XORIGIN       0.00000000
  YORIGIN   55000.00000000
END options

BEGIN dimensions
  NLAY  2
  NROW  10
  NCOL  9
END dimensions

BEGIN griddata
  delr
    INTERNAL  FACTOR  1.0
      5000.00000000    5000.00000000    5000.00000000    5000.00000000    5000.00000000    5000.00000000    5000.00000000    5000.00000000    5000.00000000
  delc
    INTERNAL  FACTOR  1.0
      5000.00000000    5000.00000000    5000.00000000    5000.00000000    5000.00000000    5000.00000000    5000.00000000    5000.00000000    5000.00000000    5000.00000000
  top
    INTERNAL  FACTOR  1.0
       101.09039307     101.13024139     101.25666046     101.25666046     101.28726959     101.23593903     101.02922058     100.70333862      99.61818695
       101.72914124     101.09039307     101.13024139     101.25666046     101.28726959     101.23593903     101.02922058     100.49099731      99.48647308
       102.49778748     101.72914124     101.09039307     101.13024139     101.25666046     101.22657013     100.83457947     100.08406830      98.99633026
       102.76670074     102.49778748     101.72914124     101.09039307     100.99311066     100.49706268      99.74761963      98.77453613      97.55210876
       103.35204315     102.76670074     101.97846222     101.02243805      99.91932678      98.74380493      97.61303711      96.43305206      95.10495758
       103.61625671     103.35204315     101.97846222     100.13890839      97.61560059      95.61146545      94.22698975      92.92340851      91.53657532
       104.34490204     103.47116852     102.05284882      98.67810822      93.12428284      90.47088623      89.46460724      88.11869049      86.67359924
       105.29252625     104.01184845     102.03530884      98.10408020      90.01431274      84.44444275      83.62719727      81.87342834      80.28450775
       105.53228760     104.49772644     102.19071198      98.24797821      91.94060516      84.44444275      81.66666412      78.88888550      76.11111450
       106.15061951     104.95815277     102.65837860      99.16442108      94.57428741      89.65061951      85.35812378      81.69876099      78.12384796
  botm  LAYERED
    INTERNAL  FACTOR  1.0
          96.09039307      96.13024139      96.25666046      96.25666046      96.28726959      96.23593903      96.02922058      95.70333862      94.61818695
          96.72914124      96.09039307      96.13024139      96.25666046      96.28726959      96.23593903      96.02922058      95.49099731      94.48647308
          97.49778748      96.72914124      96.09039307      96.13024139      96.25666046      96.22657013      95.83457947      95.08406830      93.99633026
          97.76670074      97.49778748      96.72914124      96.09039307      95.99311066      95.49706268      94.74761963      93.77453613      92.55210876
          98.35204315      97.76670074      96.97846222      96.02243805      94.91932678      93.74380493      92.61303711      91.43305206      90.10495758
          98.61625671      98.35204315      96.97846222      95.13890839      92.61560059      90.61146545      89.22698975      87.92340851      86.53657532
          99.34490204      98.47116852      97.05284882      93.67810822      88.12428284      85.47088623      84.46460724      83.11869049      81.67359924
         100.29252625      99.01184845      97.03530884      93.10408020      85.01431274      79.44444275      78.62719727      76.87342834      75.28450775
         100.53228760      99.49772644      97.19071198      93.24797821      86.94060516      79.44444275      76.66666412      73.88888550      71.11111450
         101.15061951      99.95815277      97.65837860      94.16442108      89.57428741      84.65061951      80.35812378      76.69876099      73.12384796
    INTERNAL  FACTOR  1.0
          88.59039307      88.63024139      88.75666046      88.75666046      88.78726959      88.73593903      88.52922058      88.20333862      87.11818695
          89.22914124      88.59039307      88.63024139      88.75666046      88.78726959      88.73593903      88.52922058      87.99099731      86.98647308
          89.99778748      89.22914124      88.59039307      88.63024139      88.75666046      88.72657013      88.33457947      87.58406830      86.49633026
          90.26670074      89.99778748      89.22914124      88.59039307      88.49311066      87.99706268      87.24761963      86.27453613      85.05210876
          90.85204315      90.26670074      89.47846222      88.52243805      87.41932678      86.24380493      85.11303711      83.93305206      82.60495758
          91.11625671      90.85204315      89.47846222      87.63890839      85.11560059      83.11146545      81.72698975      80.42340851      79.03657532
          91.84490204      90.97116852      89.55284882      86.17810822      80.62428284      77.97088623      76.96460724      75.61869049      74.17359924
          92.79252625      91.51184845      89.53530884      85.60408020      77.51431274      71.94444275      71.12719727      69.37342834      67.78450775
          93.03228760      91.99772644      89.69071198      85.74797821      79.44060516      71.94444275      69.16666412      66.38888550      63.61111450
          93.65061951      92.45815277      90.15837860      86.66442108      82.07428741      77.15061951      72.85812378      69.19876099      65.62384796
  idomain
    INTERNAL  FACTOR  1
      0  0  0  0  0  0  0  0  0
      0  0  0  0  0  0  0  1  1
      0  0  0  0  0  1  1  1  1
      0  0  0  0  1  1  1  1  1
      0  0  0  1  1  1  1  1  1
      0  1  1  1  1  1  1  1  1
      0  1  1  1  1  1  1  1  1
      1  1  1  1  1  1  1  1  1
      1  1  1  1  1  1  1  1  1
      1  1  1  1  1  1  1  1  1
      0  0  0  0  0  0  0  0  0
      0  0  0  0  0  0  0  1  1
      0  0  0  0  0  1  1  1  1
      0  0  0  0  1  1  1  1  1
      0  0  0  1  1  1  1  1  1
      0  1  1  1  1  1  1  1  1
      0  1  1  1  1  1  1  1  1
      1  1  1  1  1  1  1  1  1
      1  1  1  1  1  1  1  1  1
      1  1  1  1  1  1  1  1  1
END griddata

