# File generated by Flopy version 3.9.1 on 06/14/2025 at 10:34:09.
BEGIN options
  SAVE_FLOWS
  NEWTON  UNDER_RELAXATION
END options

BEGIN packages
  DIS6  model_5.dis  dis
  NPF6  model_5.npf  npf
  STO6  model_5.sto  sto
  RCH6  model_5.rcha  rcha_0
  DRN6  model_5.drn  river
  DRN6  model_5_0.drn  gwd
  OC6  model_5.oc  oc
END packages

