# File generated by Flopy version 3.9.1 on 06/14/2025 at 10:34:09.
BEGIN options
  SAVE_FLOWS
  NEWTON  UNDER_RELAXATION
END options

BEGIN packages
  DIS6  model_7.dis  dis
  NPF6  model_7.npf  npf
  STO6  model_7.sto  sto
  RCH6  model_7.rcha  rcha_0
  DRN6  model_7.drn  river
  DRN6  model_7_0.drn  gwd
  OC6  model_7.oc  oc
END packages

