# File generated by Flopy version 3.9.1 on 06/14/2025 at 10:34:09.
BEGIN options
  READASARRAYS
END options

BEGIN period  1
  recharge
    CONSTANT  1.00000000E-06
END period  1

