# File generated by Flopy version 3.9.1 on 06/14/2025 at 10:34:09.
BEGIN options
  auxiliary  depth
  AUXDEPTHNAME  depth
END options

BEGIN dimensions
  MAXBOUND  470
END dimensions

BEGIN period  1
  1 1 1 5.12561607E+01 1.00000000E+07 1.00000000E+00
  1 1 2 4.74807777E+01 1.00000000E+07 1.00000000E+00
  1 1 3 4.37490692E+01 1.00000000E+07 1.00000000E+00
  1 1 4 4.03623810E+01 1.00000000E+07 1.00000000E+00
  1 1 5 3.71686363E+01 1.00000000E+07 1.00000000E+00
  1 1 6 3.41413460E+01 1.00000000E+07 1.00000000E+00
  1 1 9 3.03004093E+01 1.00000000E+07 1.00000000E+00
  1 2 1 4.92160835E+01 1.00000000E+07 1.00000000E+00
  1 2 2 4.61770401E+01 1.00000000E+07 1.00000000E+00
  1 2 3 4.31836586E+01 1.00000000E+07 1.00000000E+00
  1 2 4 3.99754333E+01 1.00000000E+07 1.00000000E+00
  1 2 5 3.69604950E+01 1.00000000E+07 1.00000000E+00
  1 4 1 4.80981522E+01 1.00000000E+07 1.00000000E+00
  1 4 4 4.64277611E+01 1.00000000E+07 1.00000000E+00
  1 4 5 4.59255867E+01 1.00000000E+07 1.00000000E+00
  1 4 6 4.44784927E+01 1.00000000E+07 1.00000000E+00
  1 4 7 4.22367287E+01 1.00000000E+07 1.00000000E+00
  1 4 8 3.98661041E+01 1.00000000E+07 1.00000000E+00
  1 4 9 3.74524307E+01 1.00000000E+07 1.00000000E+00
  1 5 3 5.04656258E+01 1.00000000E+07 1.00000000E+00
  1 5 4 5.28250732E+01 1.00000000E+07 1.00000000E+00
  1 5 5 5.32806053E+01 1.00000000E+07 1.00000000E+00
  1 5 6 5.23155632E+01 1.00000000E+07 1.00000000E+00
  1 5 7 5.07687988E+01 1.00000000E+07 1.00000000E+00
  1 5 8 4.88627396E+01 1.00000000E+07 1.00000000E+00
  1 5 9 4.67224426E+01 1.00000000E+07 1.00000000E+00
  1 6 1 5.32266808E+01 1.00000000E+07 1.00000000E+00
  1 6 2 5.53886986E+01 1.00000000E+07 1.00000000E+00
  1 6 3 5.74277992E+01 1.00000000E+07 1.00000000E+00
  1 6 4 5.89266052E+01 1.00000000E+07 1.00000000E+00
  1 6 5 5.94702415E+01 1.00000000E+07 1.00000000E+00
  1 6 6 5.87888718E+01 1.00000000E+07 1.00000000E+00
  1 6 7 5.75812874E+01 1.00000000E+07 1.00000000E+00
  1 6 8 5.59619942E+01 1.00000000E+07 1.00000000E+00
  1 6 9 5.40026321E+01 1.00000000E+07 1.00000000E+00
  1 7 1 6.05342941E+01 1.00000000E+07 1.00000000E+00
  1 7 2 6.19331627E+01 1.00000000E+07 1.00000000E+00
  1 7 3 6.32391357E+01 1.00000000E+07 1.00000000E+00
  1 7 4 6.41968460E+01 1.00000000E+07 1.00000000E+00
  1 7 5 6.45609360E+01 1.00000000E+07 1.00000000E+00
  1 7 6 6.40047302E+01 1.00000000E+07 1.00000000E+00
  1 7 7 6.29761391E+01 1.00000000E+07 1.00000000E+00
  1 7 8 6.15278053E+01 1.00000000E+07 1.00000000E+00
  1 7 9 5.96864777E+01 1.00000000E+07 1.00000000E+00
  1 8 1 6.58311234E+01 1.00000000E+07 1.00000000E+00
  1 8 2 6.68168335E+01 1.00000000E+07 1.00000000E+00
  1 8 3 6.77232513E+01 1.00000000E+07 1.00000000E+00
  1 8 4 6.83729935E+01 1.00000000E+07 1.00000000E+00
  1 8 5 6.85513992E+01 1.00000000E+07 1.00000000E+00
  1 8 6 6.80432816E+01 1.00000000E+07 1.00000000E+00
  1 8 7 6.71144257E+01 1.00000000E+07 1.00000000E+00
  1 8 8 6.57788391E+01 1.00000000E+07 1.00000000E+00
  1 8 9 6.40295486E+01 1.00000000E+07 1.00000000E+00
  1 9 1 6.93755188E+01 1.00000000E+07 1.00000000E+00
  1 9 2 7.01872177E+01 1.00000000E+07 1.00000000E+00
  1 9 3 7.08995361E+01 1.00000000E+07 1.00000000E+00
  1 9 4 7.13851318E+01 1.00000000E+07 1.00000000E+00
  1 9 5 7.14355316E+01 1.00000000E+07 1.00000000E+00
  1 9 6 7.09478836E+01 1.00000000E+07 1.00000000E+00
  1 9 7 7.00851212E+01 1.00000000E+07 1.00000000E+00
  1 9 8 6.88443146E+01 1.00000000E+07 1.00000000E+00
  1 9 9 6.71961670E+01 1.00000000E+07 1.00000000E+00
  1 10 1 7.13542786E+01 1.00000000E+07 1.00000000E+00
  1 10 2 7.21498108E+01 1.00000000E+07 1.00000000E+00
  1 10 3 7.28138199E+01 1.00000000E+07 1.00000000E+00
  1 10 4 7.32307281E+01 1.00000000E+07 1.00000000E+00
  1 10 5 7.32114944E+01 1.00000000E+07 1.00000000E+00
  1 10 6 7.27365723E+01 1.00000000E+07 1.00000000E+00
  1 10 7 7.19257507E+01 1.00000000E+07 1.00000000E+00
  1 10 8 7.07864380E+01 1.00000000E+07 1.00000000E+00
  1 10 9 6.92890091E+01 1.00000000E+07 1.00000000E+00
  1 11 2 7.35076904E+01 1.00000000E+07 1.00000000E+00
  1 11 3 7.35734711E+01 1.00000000E+07 1.00000000E+00
  1 11 4 7.39240875E+01 1.00000000E+07 1.00000000E+00
  1 11 5 7.38780441E+01 1.00000000E+07 1.00000000E+00
  1 11 6 7.34092255E+01 1.00000000E+07 1.00000000E+00
  1 11 7 7.26264343E+01 1.00000000E+07 1.00000000E+00
  1 11 8 7.15864868E+01 1.00000000E+07 1.00000000E+00
  1 11 9 7.10102692E+01 1.00000000E+07 1.00000000E+00
END period  1

