# File generated by Flopy version 3.9.1 on 06/14/2025 at 10:34:09.
BEGIN options
  XORIGIN   90000.00000000
  YORIGIN   55000.00000000
END options

BEGIN dimensions
  NLAY  2
  NROW  10
  NCOL  9
END dimensions

BEGIN griddata
  delr
    INTERNAL  FACTOR  1.0
      5000.00000000    5000.00000000    5000.00000000    5000.00000000    5000.00000000    5000.00000000    5000.00000000    5000.00000000    5000.00000000
  delc
    INTERNAL  FACTOR  1.0
      5000.00000000    5000.00000000    5000.00000000    5000.00000000    5000.00000000    5000.00000000    5000.00000000    5000.00000000    5000.00000000    5000.00000000
  top
    INTERNAL  FACTOR  1.0
        67.95307159      67.08169556      67.00645447      66.26735687      65.70725250      65.15328217      63.83684158      62.15637970      60.18175125
        67.95307159      67.08169556      66.40056610      66.26735687      65.70725250      65.15328217      63.83684158      62.15637970      60.18175125
        67.49756622      67.00645447      66.40056610      65.78166199      65.15328217      63.83684158      63.17837143      61.36823273      60.18175125
        66.10717773      65.89859009      65.64193726      65.13110352      64.18395996      63.83684158      62.15637970      60.18175125      59.30734634
        61.75797272      63.02060318      63.67755890      63.62630844      62.98958588      61.95140839      60.52481461      59.30734634      58.35778427
        56.03382492      58.95616531      60.42432785      60.98432159      60.59080887      59.82408905      58.73880768      57.30831528      55.37643814
        50.55555725      54.62570190      56.39251328      57.09560776      56.93693542      56.38941574      55.62852478      54.62416458      53.31422043
        49.44444275      50.49948120      51.60012817      52.09242249      51.84635925      51.44017410      51.04969025      50.58082199      49.82624817
        48.33333206      45.55555725      45.00000000      45.59077835      44.97950363      44.55158234      44.52327728      44.76303482      44.97594452
        50.37471771      45.96897125      42.77777863      40.00000000      37.22222137      34.44444275      33.88888931      36.47253418      38.27091599
  botm  LAYERED
    INTERNAL  FACTOR  1.0
          62.95307159      62.08169556      62.00645447      61.26735687      60.70725250      60.15328217      58.83684158      57.15637970      55.18175125
          62.95307159      62.08169556      61.40056610      61.26735687      60.70725250      60.15328217      58.83684158      57.15637970      55.18175125
          62.49756622      62.00645447      61.40056610      60.78166199      60.15328217      58.83684158      58.17837143      56.36823273      55.18175125
          61.10717773      60.89859009      60.64193726      60.13110352      59.18395996      58.83684158      57.15637970      55.18175125      54.30734634
          56.75797272      58.02060318      58.67755890      58.62630844      57.98958588      56.95140839      55.52481461      54.30734634      53.35778427
          51.03382492      53.95616531      55.42432785      55.98432159      55.59080887      54.82408905      53.73880768      52.30831528      50.37643814
          45.55555725      49.62570190      51.39251328      52.09560776      51.93693542      51.38941574      50.62852478      49.62416458      48.31422043
          44.44444275      45.49948120      46.60012817      47.09242249      46.84635925      46.44017410      46.04969025      45.58082199      44.82624817
          43.33333206      40.55555725      40.00000000      40.59077835      39.97950363      39.55158234      39.52327728      39.76303482      39.97594452
          45.37471771      40.96897125      37.77777863      35.00000000      32.22222137      29.44444275      28.88888931      31.47253418      33.27091599
    INTERNAL  FACTOR  1.0
          55.45307159      54.58169556      54.50645447      53.76735687      53.20725250      52.65328217      51.33684158      49.65637970      47.68175125
          55.45307159      54.58169556      53.90056610      53.76735687      53.20725250      52.65328217      51.33684158      49.65637970      47.68175125
          54.99756622      54.50645447      53.90056610      53.28166199      52.65328217      51.33684158      50.67837143      48.86823273      47.68175125
          53.60717773      53.39859009      53.14193726      52.63110352      51.68395996      51.33684158      49.65637970      47.68175125      46.80734634
          49.25797272      50.52060318      51.17755890      51.12630844      50.48958588      49.45140839      48.02481461      46.80734634      45.85778427
          43.53382492      46.45616531      47.92432785      48.48432159      48.09080887      47.32408905      46.23880768      44.80831528      42.87643814
          38.05555725      42.12570190      43.89251328      44.59560776      44.43693542      43.88941574      43.12852478      42.12416458      40.81422043
          36.94444275      37.99948120      39.10012817      39.59242249      39.34635925      38.94017410      38.54969025      38.08082199      37.32624817
          35.83333206      33.05555725      32.50000000      33.09077835      32.47950363      32.05158234      32.02327728      32.26303482      32.47594452
          37.87471771      33.46897125      30.27777863      27.50000000      24.72222137      21.94444275      21.38888931      23.97253418      25.77091599
  idomain
    INTERNAL  FACTOR  1
      0  0  0  0  0  0  0  0  0
      0  0  0  0  0  0  0  0  0
      1  1  0  0  0  0  0  0  0
      1  1  1  1  1  1  0  0  0
      1  1  1  1  1  1  1  1  0
      1  1  1  1  1  1  1  1  1
      1  1  1  1  1  1  1  1  1
      1  1  1  1  1  1  1  1  1
      1  1  1  1  1  1  1  1  1
      1  1  1  1  1  1  1  1  1
      0  0  0  0  0  0  0  0  0
      0  0  0  0  0  0  0  0  0
      1  1  0  0  0  0  0  0  0
      1  1  1  1  1  1  0  0  0
      1  1  1  1  1  1  1  1  0
      1  1  1  1  1  1  1  1  1
      1  1  1  1  1  1  1  1  1
      1  1  1  1  1  1  1  1  1
      1  1  1  1  1  1  1  1  1
      1  1  1  1  1  1  1  1  1
END griddata

