# File generated by Flopy version 3.10.0.dev3 on 06/15/2025 at 08:21:40.
BEGIN options
END options

BEGIN griddata
  strt  LAYERED
    INTERNAL  FACTOR  1.0
         106.46109772     105.27696991     103.09618378      99.99404907      96.17173004      92.00321960      87.90203857      84.00646973      80.23651886
         106.42813110     105.17642975     103.03238678     100.09864044      96.53376770      92.54634857      88.38343811      84.23432159      80.21315002
         106.00353241     104.64302063     102.38244629      99.27772522      95.42691803      91.10030365      86.60391235      82.13350677      77.94239044
         105.27056122     103.76230621     101.33724213      97.93894958      93.42872620      88.33638763      83.40344238      78.88888550      76.11111450
         105.08039856     102.44425964      99.99815369      96.43991089      90.91739655      84.44444275      81.66666412      79.63040924      78.16852570
         103.59868622     101.67651367      98.65974426      95.12747192      90.66130066      85.33496857      83.91230011      82.54405212      80.83419800
         103.59868622     100.96144104      98.65974426      94.86888123      91.04132080      88.24512482      86.25640869      84.49988556      82.51707458
         100.96144104      98.65974426      97.10437775      92.69839478      91.39332581      88.69767761      87.02427673      85.33779144      83.17240143
         100.96144104      98.65974426      95.37735748      92.69839478      90.28887939      88.20022583      87.21867371      86.03322601      82.92853546
          98.65974426      97.10437775      92.69839478      91.39332581      90.28887939      88.20022583      86.23340607      84.74906158      82.92853546
          98.65974426      92.69839478      92.69839478      90.28887939      88.20022583      87.21867371      86.23340607      84.74906158      81.32525635
    INTERNAL  FACTOR  1.0
         106.46109772     105.27696991     103.09618378      99.99404907      96.17173004      92.00321960      87.90203857      84.00646973      80.23651886
         106.42813110     105.17642975     103.03238678     100.09864044      96.53376770      92.54634857      88.38343811      84.23432159      80.21315002
         106.00353241     104.64302063     102.38244629      99.27772522      95.42691803      91.10030365      86.60391235      82.13350677      77.94239044
         105.27056122     103.76230621     101.33724213      97.93894958      93.42872620      88.33638763      83.40344238      78.88888550      76.11111450
         105.08039856     102.44425964      99.99815369      96.43991089      90.91739655      84.44444275      81.66666412      79.63040924      78.16852570
         103.59868622     101.67651367      98.65974426      95.12747192      90.66130066      85.33496857      83.91230011      82.54405212      80.83419800
         103.59868622     100.96144104      98.65974426      94.86888123      91.04132080      88.24512482      86.25640869      84.49988556      82.51707458
         100.96144104      98.65974426      97.10437775      92.69839478      91.39332581      88.69767761      87.02427673      85.33779144      83.17240143
         100.96144104      98.65974426      95.37735748      92.69839478      90.28887939      88.20022583      87.21867371      86.03322601      82.92853546
          98.65974426      97.10437775      92.69839478      91.39332581      90.28887939      88.20022583      86.23340607      84.74906158      82.92853546
          98.65974426      92.69839478      92.69839478      90.28887939      88.20022583      87.21867371      86.23340607      84.74906158      81.32525635
END griddata

