# File generated by Flopy version 3.9.1 on 06/14/2025 at 10:34:09.
BEGIN options
END options

BEGIN dimensions
  MAXBOUND  88
END dimensions

BEGIN period  1
  1 2 6 3.44444427E+01 1.78565974E+04
  1 2 7 3.18663578E+01 8.81784156E+03
  1 3 1 4.83333321E+01 2.38295268E+04
  1 3 2 4.55555573E+01 2.28888763E+04
  1 3 3 4.27777786E+01 2.20904756E+04
  1 3 4 4.00000000E+01 2.14149942E+04
  1 3 5 3.72222214E+01 2.07068764E+04
  1 3 6 3.61549606E+01 1.90928234E+03
  1 3 7 3.16666679E+01 1.02229331E+04
  1 3 8 2.88888893E+01 1.82242890E+04
  1 3 9 2.61111107E+01 1.73931825E+04
  1 3 3 4.27777786E+01 2.49101053E+04
  1 3 4 4.00000000E+01 4.09860131E+03
  1 4 2 4.55555573E+01 2.58261190E+04
  1 4 3 4.50000000E+01 3.70585975E+03
  1 5 1 4.83333321E+01 2.69250691E+04
  1 5 2 4.72222214E+01 7.13920629E+03
  1 1 7 3.16666679E+01 2.05747725E+04
  1 1 8 2.94444447E+01 1.60697132E+04
  1 2 8 2.88888893E+01 7.46650125E+03
  1 2 9 2.61111107E+01 2.03380825E+04
END period  1

