# File generated by Flopy version 3.10.0.dev3 on 06/15/2025 at 08:21:40.
BEGIN options
  auxiliary  depth
  AUXDEPTHNAME  depth
END options

BEGIN dimensions
  MAXBOUND  470
END dimensions

BEGIN period  1
  1 1 1 3.14533863E+01 1.00000000E+07 1.00000000E+00
  1 1 2 2.97115879E+01 1.00000000E+07 1.00000000E+00
  1 1 3 2.72452793E+01 1.00000000E+07 1.00000000E+00
  1 1 4 2.46894455E+01 1.00000000E+07 1.00000000E+00
  1 1 5 2.21551628E+01 1.00000000E+07 1.00000000E+00
  1 1 6 1.99355049E+01 1.00000000E+07 1.00000000E+00
  1 1 7 1.78815155E+01 1.00000000E+07 1.00000000E+00
  1 1 8 1.58209991E+01 1.00000000E+07 1.00000000E+00
  1 1 9 1.44320211E+01 1.00000000E+07 1.00000000E+00
  1 1 10 1.53056841E+01 1.00000000E+07 1.00000000E+00
  1 2 2 2.11644993E+01 1.00000000E+07 1.00000000E+00
  1 2 7 1.00971069E+01 1.00000000E+07 1.00000000E+00
  1 2 8 9.42963219E+00 1.00000000E+07 1.00000000E+00
  1 2 9 8.77938557E+00 1.00000000E+07 1.00000000E+00
  1 2 10 1.15537338E+01 1.00000000E+07 1.00000000E+00
  1 3 4 1.69227848E+01 1.00000000E+07 1.00000000E+00
  1 3 5 1.38338470E+01 1.00000000E+07 1.00000000E+00
  1 4 1 3.49919167E+01 1.00000000E+07 1.00000000E+00
  1 4 2 3.26145744E+01 1.00000000E+07 1.00000000E+00
  1 4 3 3.03083382E+01 1.00000000E+07 1.00000000E+00
  1 4 4 2.74376945E+01 1.00000000E+07 1.00000000E+00
  1 4 5 2.38564377E+01 1.00000000E+07 1.00000000E+00
  1 4 6 1.94377689E+01 1.00000000E+07 1.00000000E+00
  1 4 7 1.44529543E+01 1.00000000E+07 1.00000000E+00
  1 4 8 9.46566200E+00 1.00000000E+07 1.00000000E+00
  1 4 9 7.23176527E+00 1.00000000E+07 1.00000000E+00
  1 4 10 1.23468513E+01 1.00000000E+07 1.00000000E+00
  1 5 1 4.43893776E+01 1.00000000E+07 1.00000000E+00
  1 5 2 4.18743515E+01 1.00000000E+07 1.00000000E+00
  1 5 3 3.90961456E+01 1.00000000E+07 1.00000000E+00
  1 5 4 3.58804398E+01 1.00000000E+07 1.00000000E+00
  1 5 5 3.21487999E+01 1.00000000E+07 1.00000000E+00
  1 5 6 2.79785461E+01 1.00000000E+07 1.00000000E+00
  1 5 7 2.36650486E+01 1.00000000E+07 1.00000000E+00
  1 5 8 1.98815193E+01 1.00000000E+07 1.00000000E+00
  1 5 9 1.79869061E+01 1.00000000E+07 1.00000000E+00
  1 5 10 2.05110779E+01 1.00000000E+07 1.00000000E+00
  1 6 1 5.17244377E+01 1.00000000E+07 1.00000000E+00
  1 6 2 4.91035461E+01 1.00000000E+07 1.00000000E+00
  1 6 3 4.60685234E+01 1.00000000E+07 1.00000000E+00
  1 6 4 4.25367012E+01 1.00000000E+07 1.00000000E+00
  1 6 5 3.85242615E+01 1.00000000E+07 1.00000000E+00
  1 6 6 3.42067719E+01 1.00000000E+07 1.00000000E+00
  1 6 7 2.98641682E+01 1.00000000E+07 1.00000000E+00
  1 6 8 2.57623692E+01 1.00000000E+07 1.00000000E+00
  1 6 9 2.28673420E+01 1.00000000E+07 1.00000000E+00
  1 7 1 5.74436684E+01 1.00000000E+07 1.00000000E+00
  1 7 2 5.47530441E+01 1.00000000E+07 1.00000000E+00
  1 7 3 5.15241203E+01 1.00000000E+07 1.00000000E+00
  1 7 4 4.76284294E+01 1.00000000E+07 1.00000000E+00
  1 7 5 4.30803986E+01 1.00000000E+07 1.00000000E+00
  1 7 6 3.82998962E+01 1.00000000E+07 1.00000000E+00
  1 7 7 3.34509392E+01 1.00000000E+07 1.00000000E+00
  1 7 8 3.28168144E+01 1.00000000E+07 1.00000000E+00
  1 8 1 6.18290329E+01 1.00000000E+07 1.00000000E+00
  1 8 2 5.91137047E+01 1.00000000E+07 1.00000000E+00
  1 8 3 5.57826538E+01 1.00000000E+07 1.00000000E+00
  1 8 4 5.15889549E+01 1.00000000E+07 1.00000000E+00
  1 8 5 4.85625229E+01 1.00000000E+07 1.00000000E+00
  1 9 1 6.50644760E+01 1.00000000E+07 1.00000000E+00
  1 9 2 6.23696632E+01 1.00000000E+07 1.00000000E+00
  1 9 3 5.88852654E+01 1.00000000E+07 1.00000000E+00
  1 9 4 5.83757019E+01 1.00000000E+07 1.00000000E+00
  1 10 1 6.73220139E+01 1.00000000E+07 1.00000000E+00
  1 10 2 6.58084259E+01 1.00000000E+07 1.00000000E+00
END period  1

