# File generated by Flopy version 3.10.0.dev3 on 06/15/2025 at 08:21:40.
BEGIN options
  XORIGIN  1.35000000E+05
  YORIGIN   55000.00000000
END options

BEGIN dimensions
  NLAY  2
  NROW  10
  NCOL  10
END dimensions

BEGIN griddata
  delr
    INTERNAL  FACTOR  1.0
      5000.00000000    5000.00000000    5000.00000000    5000.00000000    5000.00000000    5000.00000000    5000.00000000    5000.00000000    5000.00000000    5000.00000000
  delc
    INTERNAL  FACTOR  1.0
      5000.00000000    5000.00000000    5000.00000000    5000.00000000    5000.00000000    5000.00000000    5000.00000000    5000.00000000    5000.00000000    5000.00000000
  top
    INTERNAL  FACTOR  1.0
        60.18175125      58.35778427      52.93722153      51.20437241      51.20437241      50.16458130      47.71946335      47.71946335      44.04087067      40.99962997
        59.30734634      52.93722153      52.93722153      51.20437241      51.20437241      48.97345734      47.71946335      47.71946335      40.99962997      40.99962997
        58.35778427      52.93722153      52.93722153      51.20437241      50.16458130      47.71946335      47.71946335      44.04087067      40.99962997      36.22415924
        55.99590683      52.93722153      51.20437241      51.20437241      48.97345734      47.71946335      44.04087067      40.99962997      36.22415924      36.22415924
        55.99590683      52.93722153      51.20437241      50.16458130      47.71946335      44.04087067      40.99962997      40.99962997      36.22415924      29.29211807
        53.35088730      51.43504333      51.20437241      48.97345734      47.71946335      44.04087067      40.99962997      36.22415924      29.29211807      29.29211807
        51.74875641      49.94956207      47.81800079      45.84745407      44.04087067      40.99962997      36.22415924      34.95113373      29.29211807      23.74958992
        48.66368484      47.05564880      44.97275543      42.33663177      39.17969513      38.48136902      34.95113373      29.29211807      23.74958992      20.11955261
        44.24005508      42.82469940      40.82455444      38.32235718      35.34433365      31.82070541      29.29211807      26.27565956      20.11955261      17.02588463
        38.60053635      37.24243927      35.19605255      32.75003815      30.03706741      27.08341408      23.76416206      20.11955261      20.11955261      15.80568409
  botm  LAYERED
    INTERNAL  FACTOR  1.0
          55.18175125      53.35778427      47.93722153      46.20437241      46.20437241      45.16458130      42.71946335      42.71946335      39.04087067      35.99962997
          54.30734634      47.93722153      47.93722153      46.20437241      46.20437241      43.97345734      42.71946335      42.71946335      35.99962997      35.99962997
          53.35778427      47.93722153      47.93722153      46.20437241      45.16458130      42.71946335      42.71946335      39.04087067      35.99962997      31.22415924
          50.99590683      47.93722153      46.20437241      46.20437241      43.97345734      42.71946335      39.04087067      35.99962997      31.22415924      31.22415924
          50.99590683      47.93722153      46.20437241      45.16458130      42.71946335      39.04087067      35.99962997      35.99962997      31.22415924      24.29211807
          48.35088730      46.43504333      46.20437241      43.97345734      42.71946335      39.04087067      35.99962997      31.22415924      24.29211807      24.29211807
          46.74875641      44.94956207      42.81800079      40.84745407      39.04087067      35.99962997      31.22415924      29.95113373      24.29211807      18.74958992
          43.66368484      42.05564880      39.97275543      37.33663177      34.17969513      33.48136902      29.95113373      24.29211807      18.74958992      15.11955261
          39.24005508      37.82469940      35.82455444      33.32235718      30.34433365      26.82070541      24.29211807      21.27565956      15.11955261      12.02588463
          33.60053635      32.24243927      30.19605255      27.75003815      25.03706741      22.08341408      18.76416206      15.11955261      15.11955261      10.80568409
    INTERNAL  FACTOR  1.0
          47.68175125      45.85778427      40.43722153      38.70437241      38.70437241      37.66458130      35.21946335      35.21946335      31.54087067      28.49962997
          46.80734634      40.43722153      40.43722153      38.70437241      38.70437241      36.47345734      35.21946335      35.21946335      28.49962997      28.49962997
          45.85778427      40.43722153      40.43722153      38.70437241      37.66458130      35.21946335      35.21946335      31.54087067      28.49962997      23.72415924
          43.49590683      40.43722153      38.70437241      38.70437241      36.47345734      35.21946335      31.54087067      28.49962997      23.72415924      23.72415924
          43.49590683      40.43722153      38.70437241      37.66458130      35.21946335      31.54087067      28.49962997      28.49962997      23.72415924      16.79211807
          40.85088730      38.93504333      38.70437241      36.47345734      35.21946335      31.54087067      28.49962997      23.72415924      16.79211807      16.79211807
          39.24875641      37.44956207      35.31800079      33.34745407      31.54087067      28.49962997      23.72415924      22.45113373      16.79211807      11.24958992
          36.16368484      34.55564880      32.47275543      29.83663177      26.67969513      25.98136902      22.45113373      16.79211807      11.24958992       7.61955261
          31.74005508      30.32469940      28.32455444      25.82235718      22.84433365      19.32070541      16.79211807      13.77565956       7.61955261       4.52588463
          26.10053635      24.74243927      22.69605255      20.25003815      17.53706741      14.58341408      11.26416206       7.61955261       7.61955261       3.30568409
  idomain
    INTERNAL  FACTOR  1
      0  0  0  0  0  0  0  0  0  0
      0  0  0  0  0  0  0  0  0  0
      0  0  0  0  0  0  0  0  0  0
      0  0  0  0  0  0  0  0  0  0
      0  0  0  0  0  0  0  0  0  0
      1  1  1  0  0  0  0  0  0  0
      1  1  1  1  0  0  0  0  0  0
      1  1  1  1  1  1  0  0  0  0
      1  1  1  1  1  1  1  0  0  0
      1  1  1  1  1  1  1  1  0  0
      0  0  0  0  0  0  0  0  0  0
      0  0  0  0  0  0  0  0  0  0
      0  0  0  0  0  0  0  0  0  0
      0  0  0  0  0  0  0  0  0  0
      0  0  0  0  0  0  0  0  0  0
      1  1  1  0  0  0  0  0  0  0
      1  1  1  1  0  0  0  0  0  0
      1  1  1  1  1  1  0  0  0  0
      1  1  1  1  1  1  1  0  0  0
      1  1  1  1  1  1  1  1  0  0
END griddata

