# File generated by Flopy version 3.10.0.dev3 on 06/15/2025 at 08:21:40.
BEGIN options
END options

BEGIN griddata
  strt  LAYERED
    INTERNAL  FACTOR  1.0
          67.95307159      67.08169556      67.00645447      66.26735687      65.70725250      65.15328217      63.83684158      62.15637970      60.18175125
          67.95307159      67.08169556      66.40056610      66.26735687      65.70725250      65.15328217      63.83684158      62.15637970      60.18175125
          67.49756622      67.00645447      66.40056610      65.78166199      65.15328217      63.83684158      63.17837143      61.36823273      60.18175125
          66.10717773      65.89859009      65.64193726      65.13110352      64.18395996      63.83684158      62.15637970      60.18175125      59.30734634
          61.75797272      63.02060318      63.67755890      63.62630844      62.98958588      61.95140839      60.52481461      59.30734634      58.35778427
          56.03382492      58.95616531      60.42432785      60.98432159      60.59080887      59.82408905      58.73880768      57.30831528      55.37643814
          50.55555725      54.62570190      56.39251328      57.09560776      56.93693542      56.38941574      55.62852478      54.62416458      53.31422043
          49.44444275      50.49948120      51.60012817      52.09242249      51.84635925      51.44017410      51.04969025      50.58082199      49.82624817
          48.33333206      45.55555725      45.00000000      45.59077835      44.97950363      44.55158234      44.52327728      44.76303482      44.97594452
          50.37471771      45.96897125      42.77777863      40.00000000      37.22222137      34.44444275      33.88888931      36.47253418      38.27091599
    INTERNAL  FACTOR  1.0
          67.95307159      67.08169556      67.00645447      66.26735687      65.70725250      65.15328217      63.83684158      62.15637970      60.18175125
          67.95307159      67.08169556      66.40056610      66.26735687      65.70725250      65.15328217      63.83684158      62.15637970      60.18175125
          67.49756622      67.00645447      66.40056610      65.78166199      65.15328217      63.83684158      63.17837143      61.36823273      60.18175125
          66.10717773      65.89859009      65.64193726      65.13110352      64.18395996      63.83684158      62.15637970      60.18175125      59.30734634
          61.75797272      63.02060318      63.67755890      63.62630844      62.98958588      61.95140839      60.52481461      59.30734634      58.35778427
          56.03382492      58.95616531      60.42432785      60.98432159      60.59080887      59.82408905      58.73880768      57.30831528      55.37643814
          50.55555725      54.62570190      56.39251328      57.09560776      56.93693542      56.38941574      55.62852478      54.62416458      53.31422043
          49.44444275      50.49948120      51.60012817      52.09242249      51.84635925      51.44017410      51.04969025      50.58082199      49.82624817
          48.33333206      45.55555725      45.00000000      45.59077835      44.97950363      44.55158234      44.52327728      44.76303482      44.97594452
          50.37471771      45.96897125      42.77777863      40.00000000      37.22222137      34.44444275      33.88888931      36.47253418      38.27091599
END griddata

