# File generated by Flopy version 3.9.1 on 06/14/2025 at 10:34:09.
BEGIN options
  BUDGET  FILEOUT  model_8.cbc
  HEAD  FILEOUT  model_8.hds
END options

BEGIN period  1
  SAVE  HEAD  ALL
  SAVE  BUDGET  ALL
  PRINT  BUDGET  ALL
END period  1

