# File generated by Flopy version 3.10.0.dev3 on 06/15/2025 at 08:21:40.
BEGIN options
END options

BEGIN dimensions
  MAXBOUND  88
END dimensions

BEGIN period  1
  1 2 3 1.77777786E+01 1.34416454E+04
  1 2 4 1.50000000E+01 1.42845107E+04
  1 2 5 1.22222223E+01 1.35347344E+04
  1 2 6 1.05555563E+01 6.94217554E+03
  1 3 1 2.33333321E+01 1.66271551E+04
  1 3 2 2.05555553E+01 1.58670611E+04
  1 3 3 2.00000000E+01 1.69978206E+03
  1 3 6 9.44444466E+00 6.00699616E+03
  1 3 7 6.66666651E+00 1.23466489E+04
  1 3 8 3.88888884E+00 1.17319741E+04
  1 3 9 1.11111104E+00 1.04788442E+04
  1 3 10 3.64044738E+00 9.62218555E+03
  1 2 1 2.47823582E+01 5.76763566E+03
  1 3 1 2.33333321E+01 2.07634884E+03
END period  1

