# File generated by Flopy version 3.10.0.dev3 on 06/15/2025 at 08:21:40.
BEGIN options
END options

BEGIN griddata
  strt  LAYERED
    INTERNAL  FACTOR  1.0
          60.18175125      58.35778427      52.93722153      51.20437241      51.20437241      50.16458130      47.71946335      47.71946335      44.04087067      40.99962997
          59.30734634      52.93722153      52.93722153      51.20437241      51.20437241      48.97345734      47.71946335      47.71946335      40.99962997      40.99962997
          58.35778427      52.93722153      52.93722153      51.20437241      50.16458130      47.71946335      47.71946335      44.04087067      40.99962997      36.22415924
          55.99590683      52.93722153      51.20437241      51.20437241      48.97345734      47.71946335      44.04087067      40.99962997      36.22415924      36.22415924
          55.99590683      52.93722153      51.20437241      50.16458130      47.71946335      44.04087067      40.99962997      40.99962997      36.22415924      29.29211807
          53.35088730      51.43504333      51.20437241      48.97345734      47.71946335      44.04087067      40.99962997      36.22415924      29.29211807      29.29211807
          51.74875641      49.94956207      47.81800079      45.84745407      44.04087067      40.99962997      36.22415924      34.95113373      29.29211807      23.74958992
          48.66368484      47.05564880      44.97275543      42.33663177      39.17969513      38.48136902      34.95113373      29.29211807      23.74958992      20.11955261
          44.24005508      42.82469940      40.82455444      38.32235718      35.34433365      31.82070541      29.29211807      26.27565956      20.11955261      17.02588463
          38.60053635      37.24243927      35.19605255      32.75003815      30.03706741      27.08341408      23.76416206      20.11955261      20.11955261      15.80568409
    INTERNAL  FACTOR  1.0
          60.18175125      58.35778427      52.93722153      51.20437241      51.20437241      50.16458130      47.71946335      47.71946335      44.04087067      40.99962997
          59.30734634      52.93722153      52.93722153      51.20437241      51.20437241      48.97345734      47.71946335      47.71946335      40.99962997      40.99962997
          58.35778427      52.93722153      52.93722153      51.20437241      50.16458130      47.71946335      47.71946335      44.04087067      40.99962997      36.22415924
          55.99590683      52.93722153      51.20437241      51.20437241      48.97345734      47.71946335      44.04087067      40.99962997      36.22415924      36.22415924
          55.99590683      52.93722153      51.20437241      50.16458130      47.71946335      44.04087067      40.99962997      40.99962997      36.22415924      29.29211807
          53.35088730      51.43504333      51.20437241      48.97345734      47.71946335      44.04087067      40.99962997      36.22415924      29.29211807      29.29211807
          51.74875641      49.94956207      47.81800079      45.84745407      44.04087067      40.99962997      36.22415924      34.95113373      29.29211807      23.74958992
          48.66368484      47.05564880      44.97275543      42.33663177      39.17969513      38.48136902      34.95113373      29.29211807      23.74958992      20.11955261
          44.24005508      42.82469940      40.82455444      38.32235718      35.34433365      31.82070541      29.29211807      26.27565956      20.11955261      17.02588463
          38.60053635      37.24243927      35.19605255      32.75003815      30.03706741      27.08341408      23.76416206      20.11955261      20.11955261      15.80568409
END griddata

