# File generated by Flopy version 3.9.1 on 06/14/2025 at 10:34:09.
BEGIN options
END options

BEGIN dimensions
  MAXBOUND  88
END dimensions

BEGIN period  1
  1 8 6 8.44444427E+01 3.63083377E+04
  1 9 6 8.44444427E+01 2.33134670E+03
  1 9 7 8.16666641E+01 3.37793919E+04
  1 9 8 7.88888855E+01 3.23459969E+04
  1 9 9 7.61111145E+01 3.18044818E+04
END period  1

