# File generated by Flopy version 3.10.0.dev3 on 06/15/2025 at 08:21:40.
BEGIN options
  auxiliary  depth
  AUXDEPTHNAME  depth
END options

BEGIN dimensions
  MAXBOUND  470
END dimensions

BEGIN period  1
  1 1 1 1.05961098E+02 1.00000000E+07 1.00000000E+00
  1 1 2 1.04776970E+02 1.00000000E+07 1.00000000E+00
  1 1 3 1.02596184E+02 1.00000000E+07 1.00000000E+00
  1 1 4 9.94940491E+01 1.00000000E+07 1.00000000E+00
  1 1 5 9.56717300E+01 1.00000000E+07 1.00000000E+00
  1 1 6 9.15032196E+01 1.00000000E+07 1.00000000E+00
  1 1 7 8.74020386E+01 1.00000000E+07 1.00000000E+00
  1 1 8 8.35064697E+01 1.00000000E+07 1.00000000E+00
  1 1 9 7.97365189E+01 1.00000000E+07 1.00000000E+00
  1 2 1 1.05928131E+02 1.00000000E+07 1.00000000E+00
  1 2 2 1.04676430E+02 1.00000000E+07 1.00000000E+00
  1 2 3 1.02532387E+02 1.00000000E+07 1.00000000E+00
  1 2 4 9.95986404E+01 1.00000000E+07 1.00000000E+00
  1 2 5 9.60337677E+01 1.00000000E+07 1.00000000E+00
  1 2 6 9.20463486E+01 1.00000000E+07 1.00000000E+00
  1 2 7 8.78834381E+01 1.00000000E+07 1.00000000E+00
  1 2 8 8.37343216E+01 1.00000000E+07 1.00000000E+00
  1 2 9 7.97131500E+01 1.00000000E+07 1.00000000E+00
  1 3 1 1.05503532E+02 1.00000000E+07 1.00000000E+00
  1 3 2 1.04143021E+02 1.00000000E+07 1.00000000E+00
  1 3 3 1.01882446E+02 1.00000000E+07 1.00000000E+00
  1 3 4 9.87777252E+01 1.00000000E+07 1.00000000E+00
  1 3 5 9.49269180E+01 1.00000000E+07 1.00000000E+00
  1 3 6 9.06003036E+01 1.00000000E+07 1.00000000E+00
  1 3 7 8.61039124E+01 1.00000000E+07 1.00000000E+00
  1 3 8 8.16335068E+01 1.00000000E+07 1.00000000E+00
  1 3 9 7.74423904E+01 1.00000000E+07 1.00000000E+00
  1 4 1 1.04770561E+02 1.00000000E+07 1.00000000E+00
  1 4 2 1.03262306E+02 1.00000000E+07 1.00000000E+00
  1 4 3 1.00837242E+02 1.00000000E+07 1.00000000E+00
  1 4 4 9.74389496E+01 1.00000000E+07 1.00000000E+00
  1 4 5 9.29287262E+01 1.00000000E+07 1.00000000E+00
  1 4 6 8.78363876E+01 1.00000000E+07 1.00000000E+00
  1 4 7 8.29034424E+01 1.00000000E+07 1.00000000E+00
  1 5 1 1.04580399E+02 1.00000000E+07 1.00000000E+00
  1 5 2 1.01944260E+02 1.00000000E+07 1.00000000E+00
  1 5 3 9.94981537E+01 1.00000000E+07 1.00000000E+00
  1 5 4 9.59399109E+01 1.00000000E+07 1.00000000E+00
  1 5 5 9.04173965E+01 1.00000000E+07 1.00000000E+00
  1 5 9 7.76685257E+01 1.00000000E+07 1.00000000E+00
  1 6 3 9.81597443E+01 1.00000000E+07 1.00000000E+00
  1 6 4 9.46274719E+01 1.00000000E+07 1.00000000E+00
  1 6 5 9.01613007E+01 1.00000000E+07 1.00000000E+00
  1 6 7 8.34123001E+01 1.00000000E+07 1.00000000E+00
  1 6 8 8.20440521E+01 1.00000000E+07 1.00000000E+00
  1 6 9 8.03341980E+01 1.00000000E+07 1.00000000E+00
  1 7 4 9.43688812E+01 1.00000000E+07 1.00000000E+00
  1 7 5 9.05413208E+01 1.00000000E+07 1.00000000E+00
  1 7 6 8.77451248E+01 1.00000000E+07 1.00000000E+00
  1 7 7 8.57564087E+01 1.00000000E+07 1.00000000E+00
  1 7 8 8.39998856E+01 1.00000000E+07 1.00000000E+00
  1 7 9 8.20170746E+01 1.00000000E+07 1.00000000E+00
  1 8 6 8.81976776E+01 1.00000000E+07 1.00000000E+00
  1 8 7 8.65242767E+01 1.00000000E+07 1.00000000E+00
  1 8 8 8.48377914E+01 1.00000000E+07 1.00000000E+00
  1 8 9 8.26724014E+01 1.00000000E+07 1.00000000E+00
  1 9 9 8.24285355E+01 1.00000000E+07 1.00000000E+00
END period  1

