# File generated by Flopy version 3.10.0.dev3 on 06/15/2025 at 08:21:40.
BEGIN options
  auxiliary  ANGLDEGX  CDIST
  NEWTON
END options

BEGIN dimensions
  NEXG  18
END dimensions

BEGIN exchangedata
  1 10 1  1 1 1  1    2500.00000000    2500.00000000    5000.00000000     270.00000000    5000.00000000
  2 10 1  2 1 1  1    2500.00000000    2500.00000000    5000.00000000     270.00000000    5000.00000000
  1 10 2  1 1 2  1    2500.00000000    2500.00000000    5000.00000000     270.00000000    5000.00000000
  2 10 2  2 1 2  1    2500.00000000    2500.00000000    5000.00000000     270.00000000    5000.00000000
  1 10 3  1 1 3  1    2500.00000000    2500.00000000    5000.00000000     270.00000000    5000.00000000
  2 10 3  2 1 3  1    2500.00000000    2500.00000000    5000.00000000     270.00000000    5000.00000000
  1 10 4  1 1 4  1    2500.00000000    2500.00000000    5000.00000000     270.00000000    5000.00000000
  2 10 4  2 1 4  1    2500.00000000    2500.00000000    5000.00000000     270.00000000    5000.00000000
  1 10 5  1 1 5  1    2500.00000000    2500.00000000    5000.00000000     270.00000000    5000.00000000
  2 10 5  2 1 5  1    2500.00000000    2500.00000000    5000.00000000     270.00000000    5000.00000000
  1 10 6  1 1 6  1    2500.00000000    2500.00000000    5000.00000000     270.00000000    5000.00000000
  2 10 6  2 1 6  1    2500.00000000    2500.00000000    5000.00000000     270.00000000    5000.00000000
  1 10 7  1 1 7  1    2500.00000000    2500.00000000    5000.00000000     270.00000000    5000.00000000
  2 10 7  2 1 7  1    2500.00000000    2500.00000000    5000.00000000     270.00000000    5000.00000000
  1 10 8  1 1 8  1    2500.00000000    2500.00000000    5000.00000000     270.00000000    5000.00000000
  2 10 8  2 1 8  1    2500.00000000    2500.00000000    5000.00000000     270.00000000    5000.00000000
  1 10 9  1 1 9  1    2500.00000000    2500.00000000    5000.00000000     270.00000000    5000.00000000
  2 10 9  2 1 9  1    2500.00000000    2500.00000000    5000.00000000     270.00000000    5000.00000000
END exchangedata

