# File generated by Flopy version 3.10.0.dev3 on 06/15/2025 at 08:21:40.
BEGIN options
  auxiliary  ANGLDEGX  CDIST
  NEWTON
END options

BEGIN dimensions
  NEXG  10
END dimensions

BEGIN exchangedata
  1 6 9  1 6 1  1    2500.00000000    2500.00000000    5000.00000000       0.00000000    5000.00000000
  2 6 9  2 6 1  1    2500.00000000    2500.00000000    5000.00000000       0.00000000    5000.00000000
  1 7 9  1 7 1  1    2500.00000000    2500.00000000    5000.00000000       0.00000000    5000.00000000
  2 7 9  2 7 1  1    2500.00000000    2500.00000000    5000.00000000       0.00000000    5000.00000000
  1 8 9  1 8 1  1    2500.00000000    2500.00000000    5000.00000000       0.00000000    5000.00000000
  2 8 9  2 8 1  1    2500.00000000    2500.00000000    5000.00000000       0.00000000    5000.00000000
  1 9 9  1 9 1  1    2500.00000000    2500.00000000    5000.00000000       0.00000000    5000.00000000
  2 9 9  2 9 1  1    2500.00000000    2500.00000000    5000.00000000       0.00000000    5000.00000000
  1 10 9  1 10 1  1    2500.00000000    2500.00000000    5000.00000000       0.00000000    5000.00000000
  2 10 9  2 10 1  1    2500.00000000    2500.00000000    5000.00000000       0.00000000    5000.00000000
END exchangedata

