# File generated by Flopy version 3.10.0.dev3 on 06/14/2025 at 06:49:48.
BEGIN options
  BUDGET  FILEOUT  model.cbc
  HEAD  FILEOUT  model.hds
END options

BEGIN period  1
  SAVE  HEAD  ALL
  SAVE  BUDGET  ALL
  PRINT  BUDGET  ALL
END period  1

