# File generated by Flopy version 3.8.2 on 06/17/2025 at 07:26:06.
BEGIN options
END options

BEGIN dimensions
  MAXBOUND  1
END dimensions

