# File generated by Flopy version 3.8.2 on 06/17/2025 at 07:26:06.
BEGIN options
END options

BEGIN nonlinear
  OUTER_DVCLOSE       0.01000000
  OUTER_MAXIMUM  1000
END nonlinear

BEGIN linear
  INNER_MAXIMUM  25
  INNER_DVCLOSE       0.00100000
  inner_rclose       0.10000000  strict
  LINEAR_ACCELERATION  bicgstab
END linear

