# File generated by Flopy version 3.9.1 on 02/17/2025 at 17:13:22.
BEGIN options
END options

BEGIN sources
  
END sources

