# File generated by Flopy version 3.9.1 on 02/15/2025 at 15:33:30.
BEGIN options
  SCHEME  upstream
END options

