# File generated by Flopy version 3.9.1 on 07/03/2025 at 10:31:09.
BEGIN options
  PRINT_OPTION  summary
END options

BEGIN nonlinear
  OUTER_DVCLOSE  1.00000000E-06
  OUTER_MAXIMUM  100
END nonlinear

BEGIN linear
  INNER_MAXIMUM  50
  INNER_DVCLOSE  1.00000000E-06
  inner_rclose  1.00000000E-06
  LINEAR_ACCELERATION  bicgstab
END linear

