# File generated by Flopy version 3.9.1 on 04/04/2025 at 15:14:00.
BEGIN options
  SAVE_SPECIFIC_DISCHARGE
END options

BEGIN griddata
  icelltype
    CONSTANT  0
  k
    INTERNAL  FACTOR  1.0
    1.47400000E-04  1.47400000E-04  1.47400000E-04  1.47400000E-04  1.47400000E-04  1.47400000E-04  1.47400000E-04  1.47400000E-04  1.47400000E-04  1.47400000E-04  1.47400000E-04  1.47400000E-04  1.47400000E-04  1.47400000E-04
    1.47400000E-04  1.47400000E-04  1.47400000E-04  1.47400000E-04  1.47400000E-04  1.47400000E-04  1.47400000E-04  1.47400000E-04  1.47400000E-04  1.47400000E-04  1.47400000E-04  1.47400000E-04  1.47400000E-04  1.47400000E-04
    1.47400000E-04  1.47400000E-04  1.47400000E-04  1.47400000E-04  1.47400000E-04  1.47400000E-04  1.47400000E-04  1.47400000E-04  1.47400000E-04  1.47400000E-04  1.47400000E-04  1.47400000E-04  1.47400000E-04  1.47400000E-04
    1.47400000E-04  1.47400000E-04  1.47400000E-04  1.47400000E-04  1.47400000E-04  1.47400000E-04  1.47400000E-04  1.47400000E-04  1.47400000E-04  1.47400000E-04  1.47400000E-04  1.47400000E-04  1.47400000E-04  1.47400000E-04
    1.47400000E-04  1.47400000E-04  1.47400000E-04  1.47400000E-04  1.47400000E-04  1.47400000E-04  1.47400000E-04  1.47400000E-04  1.47400000E-04  1.47400000E-04  1.47400000E-04  1.47400000E-04  1.47400000E-04  1.47400000E-04
    1.47400000E-04  1.47400000E-07  1.47400000E-07  1.47400000E-07  1.47400000E-07  1.47400000E-07  1.47400000E-07  1.47400000E-07  1.47400000E-04  1.47400000E-04  1.47400000E-04  1.47400000E-04  1.47400000E-04  1.47400000E-04
    1.47400000E-04  1.47400000E-07  1.47400000E-07  1.47400000E-07  1.47400000E-07  1.47400000E-07  1.47400000E-07  1.47400000E-07  1.47400000E-04  1.47400000E-04  1.47400000E-04  1.47400000E-04  1.47400000E-04  1.47400000E-04
    1.47400000E-04  1.47400000E-07  1.47400000E-07  1.47400000E-07  1.47400000E-07  1.47400000E-07  1.47400000E-07  1.47400000E-07  1.47400000E-04  1.47400000E-04  1.47400000E-04  1.47400000E-04  1.47400000E-04  1.47400000E-04
    1.47400000E-04  1.47400000E-04  1.47400000E-04  1.47400000E-04  1.47400000E-04  1.47400000E-04  1.47400000E-04  1.47400000E-04  1.47400000E-04  1.47400000E-04  1.47400000E-04  1.47400000E-04  1.47400000E-04  1.47400000E-04
    1.47400000E-04  1.47400000E-04  1.47400000E-04  1.47400000E-04  1.47400000E-04  1.47400000E-04  1.47400000E-04  1.47400000E-04  1.47400000E-04  1.47400000E-04  1.47400000E-04  1.47400000E-04  1.47400000E-04  1.47400000E-04
    1.47400000E-04  1.47400000E-04  1.47400000E-04  1.47400000E-04  1.47400000E-04  1.47400000E-04  1.47400000E-04  1.47400000E-04  1.47400000E-04  1.47400000E-04  1.47400000E-04  1.47400000E-04  1.47400000E-04  1.47400000E-04
    1.47400000E-04  1.47400000E-04  1.47400000E-04  1.47400000E-04  1.47400000E-04  1.47400000E-04  1.47400000E-04  1.47400000E-04  1.47400000E-04  1.47400000E-04  1.47400000E-04  1.47400000E-04  1.47400000E-04  1.47400000E-04
    1.47400000E-04  1.47400000E-04  1.47400000E-04  1.47400000E-04  1.47400000E-04  1.47400000E-04  1.47400000E-04  1.47400000E-04  1.47400000E-04  1.47400000E-04  1.47400000E-04  1.47400000E-04  1.47400000E-04  1.47400000E-04
    1.47400000E-04  1.47400000E-04  1.47400000E-04  1.47400000E-04  1.47400000E-04  1.47400000E-04  1.47400000E-04  1.47400000E-04  1.47400000E-04  1.47400000E-04  1.47400000E-04  1.47400000E-04  1.47400000E-04  1.47400000E-04
    1.47400000E-04  1.47400000E-04  1.47400000E-04  1.47400000E-04  1.47400000E-04  1.47400000E-04  1.47400000E-04  1.47400000E-04  1.47400000E-04  1.47400000E-04  1.47400000E-04  1.47400000E-04  1.47400000E-04  1.47400000E-04
    1.47400000E-04  1.47400000E-04  1.47400000E-04  1.47400000E-04  1.47400000E-04  1.47400000E-04  1.47400000E-04  1.47400000E-04  1.47400000E-04  1.47400000E-04  1.47400000E-04  1.47400000E-04  1.47400000E-04  1.47400000E-04
    1.47400000E-04  1.47400000E-04  1.47400000E-04  1.47400000E-04  1.47400000E-04  1.47400000E-04  1.47400000E-04  1.47400000E-04  1.47400000E-04  1.47400000E-04  1.47400000E-04  1.47400000E-04  1.47400000E-04  1.47400000E-04
    1.47400000E-04  1.47400000E-04  1.47400000E-04  1.47400000E-04  1.47400000E-04  1.47400000E-04  1.47400000E-04  1.47400000E-04  1.47400000E-04  1.47400000E-04  1.47400000E-04  1.47400000E-04  1.47400000E-04  1.47400000E-04
  k33
    INTERNAL  FACTOR  1.0
    1.47400000E-04  1.47400000E-04  1.47400000E-04  1.47400000E-04  1.47400000E-04  1.47400000E-04  1.47400000E-04  1.47400000E-04  1.47400000E-04  1.47400000E-04  1.47400000E-04  1.47400000E-04  1.47400000E-04  1.47400000E-04
    1.47400000E-04  1.47400000E-04  1.47400000E-04  1.47400000E-04  1.47400000E-04  1.47400000E-04  1.47400000E-04  1.47400000E-04  1.47400000E-04  1.47400000E-04  1.47400000E-04  1.47400000E-04  1.47400000E-04  1.47400000E-04
    1.47400000E-04  1.47400000E-04  1.47400000E-04  1.47400000E-04  1.47400000E-04  1.47400000E-04  1.47400000E-04  1.47400000E-04  1.47400000E-04  1.47400000E-04  1.47400000E-04  1.47400000E-04  1.47400000E-04  1.47400000E-04
    1.47400000E-04  1.47400000E-04  1.47400000E-04  1.47400000E-04  1.47400000E-04  1.47400000E-04  1.47400000E-04  1.47400000E-04  1.47400000E-04  1.47400000E-04  1.47400000E-04  1.47400000E-04  1.47400000E-04  1.47400000E-04
    1.47400000E-04  1.47400000E-04  1.47400000E-04  1.47400000E-04  1.47400000E-04  1.47400000E-04  1.47400000E-04  1.47400000E-04  1.47400000E-04  1.47400000E-04  1.47400000E-04  1.47400000E-04  1.47400000E-04  1.47400000E-04
    1.47400000E-04  1.47400000E-07  1.47400000E-07  1.47400000E-07  1.47400000E-07  1.47400000E-07  1.47400000E-07  1.47400000E-07  1.47400000E-04  1.47400000E-04  1.47400000E-04  1.47400000E-04  1.47400000E-04  1.47400000E-04
    1.47400000E-04  1.47400000E-07  1.47400000E-07  1.47400000E-07  1.47400000E-07  1.47400000E-07  1.47400000E-07  1.47400000E-07  1.47400000E-04  1.47400000E-04  1.47400000E-04  1.47400000E-04  1.47400000E-04  1.47400000E-04
    1.47400000E-04  1.47400000E-07  1.47400000E-07  1.47400000E-07  1.47400000E-07  1.47400000E-07  1.47400000E-07  1.47400000E-07  1.47400000E-04  1.47400000E-04  1.47400000E-04  1.47400000E-04  1.47400000E-04  1.47400000E-04
    1.47400000E-04  1.47400000E-04  1.47400000E-04  1.47400000E-04  1.47400000E-04  1.47400000E-04  1.47400000E-04  1.47400000E-04  1.47400000E-04  1.47400000E-04  1.47400000E-04  1.47400000E-04  1.47400000E-04  1.47400000E-04
    1.47400000E-04  1.47400000E-04  1.47400000E-04  1.47400000E-04  1.47400000E-04  1.47400000E-04  1.47400000E-04  1.47400000E-04  1.47400000E-04  1.47400000E-04  1.47400000E-04  1.47400000E-04  1.47400000E-04  1.47400000E-04
    1.47400000E-04  1.47400000E-04  1.47400000E-04  1.47400000E-04  1.47400000E-04  1.47400000E-04  1.47400000E-04  1.47400000E-04  1.47400000E-04  1.47400000E-04  1.47400000E-04  1.47400000E-04  1.47400000E-04  1.47400000E-04
    1.47400000E-04  1.47400000E-04  1.47400000E-04  1.47400000E-04  1.47400000E-04  1.47400000E-04  1.47400000E-04  1.47400000E-04  1.47400000E-04  1.47400000E-04  1.47400000E-04  1.47400000E-04  1.47400000E-04  1.47400000E-04
    1.47400000E-04  1.47400000E-04  1.47400000E-04  1.47400000E-04  1.47400000E-04  1.47400000E-04  1.47400000E-04  1.47400000E-04  1.47400000E-04  1.47400000E-04  1.47400000E-04  1.47400000E-04  1.47400000E-04  1.47400000E-04
    1.47400000E-04  1.47400000E-04  1.47400000E-04  1.47400000E-04  1.47400000E-04  1.47400000E-04  1.47400000E-04  1.47400000E-04  1.47400000E-04  1.47400000E-04  1.47400000E-04  1.47400000E-04  1.47400000E-04  1.47400000E-04
    1.47400000E-04  1.47400000E-04  1.47400000E-04  1.47400000E-04  1.47400000E-04  1.47400000E-04  1.47400000E-04  1.47400000E-04  1.47400000E-04  1.47400000E-04  1.47400000E-04  1.47400000E-04  1.47400000E-04  1.47400000E-04
    1.47400000E-04  1.47400000E-04  1.47400000E-04  1.47400000E-04  1.47400000E-04  1.47400000E-04  1.47400000E-04  1.47400000E-04  1.47400000E-04  1.47400000E-04  1.47400000E-04  1.47400000E-04  1.47400000E-04  1.47400000E-04
    1.47400000E-04  1.47400000E-04  1.47400000E-04  1.47400000E-04  1.47400000E-04  1.47400000E-04  1.47400000E-04  1.47400000E-04  1.47400000E-04  1.47400000E-04  1.47400000E-04  1.47400000E-04  1.47400000E-04  1.47400000E-04
    1.47400000E-04  1.47400000E-04  1.47400000E-04  1.47400000E-04  1.47400000E-04  1.47400000E-04  1.47400000E-04  1.47400000E-04  1.47400000E-04  1.47400000E-04  1.47400000E-04  1.47400000E-04  1.47400000E-04  1.47400000E-04
END griddata

