# File generated by Flopy version 3.9.1 on 06/21/2025 at 10:47:39.
BEGIN options
END options

BEGIN timing
  TDIS6  zaidel.tdis
END timing

BEGIN models
  gwf6  zaidel.nam  zaidel
END models

BEGIN exchanges
END exchanges

BEGIN solutiongroup  1
  ims6  zaidel.ims  zaidel
END solutiongroup  1

