# File generated by Flopy version 3.9.1 on 06/21/2025 at 10:47:39.
BEGIN options
END options

BEGIN dimensions
  MAXBOUND  2
END dimensions

BEGIN period  1
  1 1 1 2.30000000E+01
  1 1 200 1.00000000E+01
END period  1

