# File generated by Flopy version 3.9.1 on 06/21/2025 at 10:47:39.
BEGIN options
  HEAD  FILEOUT  zaidel.hds
END options

BEGIN period  1
  SAVE  HEAD  ALL
END period  1

