# File generated by Flopy version 3.9.1 on 06/21/2025 at 10:47:39.
BEGIN options
END options

BEGIN griddata
  strt
    CONSTANT      23.00000000
END griddata

