# File generated by Flopy version 3.9.1 on 06/21/2025 at 10:47:39.
BEGIN options
END options

BEGIN griddata
  icelltype
    CONSTANT  1
  k
    CONSTANT  1.00000000E-04
END griddata

