# File generated by Flopy version 3.9.1 on 02/27/2025 at 15:40:02.
BEGIN options
END options

BEGIN sources
  wel-1  aux  concentration
END sources

