# File generated by Flopy version 3.8.2 on 06/03/2025 at 11:41:07.
BEGIN options
END options

BEGIN GRIDDATA
  strt  LAYERED
    OPEN/CLOSE  'freyberg6.ic_strt_layer1.txt'  FACTOR  1.0
END GRIDDATA

