# File generated by Flopy version 3.9.1 on 05/16/2025 at 07:28:44.
BEGIN options
END options

BEGIN griddata
  icelltype  LAYERED
    CONSTANT  1
    CONSTANT  0
    CONSTANT  0
  k  LAYERED
    CONSTANT      50.00000000
    CONSTANT       0.01000000
    CONSTANT     200.00000000
  k33  LAYERED
    CONSTANT      10.00000000
    CONSTANT       0.01000000
    CONSTANT      20.00000000
END griddata

