# File generated by Flopy version 3.9.1 on 05/16/2025 at 07:28:44.
BEGIN options
  BUDGET  FILEOUT  ex01_mf6.cbb
  HEAD  FILEOUT  ex01_mf6.hds
END options

BEGIN period  1
  SAVE  HEAD  ALL
  SAVE  BUDGET  ALL
END period  1

