# File generated by Flopy version 3.9.1 on 05/16/2025 at 07:28:44.
BEGIN options
END options

BEGIN dimensions
  MAXBOUND  1
END dimensions

BEGIN period  1
  3 11 10 -1.50000000E+05
END period  1

