# File generated by Flopy version 3.9.1 on 02/24/2025 at 15:09:40.
BEGIN options
  NOGRB
END options

BEGIN dimensions
  NLAY  3
  NROW  101
  NCOL  101
END dimensions

BEGIN griddata
  delr
    CONSTANT       4.00000000
  delc
    CONSTANT       4.00000000
  top
    CONSTANT       0.00000000
  botm  LAYERED
    CONSTANT      -3.00000000
    CONSTANT      -9.83333333
    CONSTANT     -16.66666667
END griddata

