# File generated by Flopy version 3.10.0.dev3 on 06/16/2025 at 08:45:42.
BEGIN options
END options

BEGIN griddata
  strt  LAYERED
    INTERNAL  FACTOR  1.0
         101.72914124     101.09039307     101.09845734     101.13024139     101.22142792     101.25666046     101.25666046     101.25666046     101.28726959     101.28726959     101.23593903     101.23593903     101.02922058     101.02922058     100.70333862     100.61952209      99.61818695      99.61818695      99.06137085      97.70894623      97.52515411      96.95259857      95.87101746      95.09060669      94.44600677
         101.72914124     101.72914124     101.09039307     101.09845734     101.13024139     101.22142792     101.25666046     101.25666046     101.25666046     101.28726959     101.23593903     101.23593903     101.23593903     101.02922058     100.70333862     100.61952209      99.61818695      99.61818695      99.06137085      97.70894623      97.52515411      96.95259857      95.87101746      95.09060669      94.44600677
         102.49778748     101.72914124     101.72914124     101.09039307     101.09845734     101.13024139     101.22142792     101.25666046     101.25666046     101.28726959     101.28726959     101.23593903     101.23593903     101.02922058     100.70333862     100.61952209     100.14676666      99.60565567      99.11627960      98.42719078      97.63033295      96.83052444      95.90703964      94.86996460      93.56759834
         102.49778748     102.49778748     101.72914124     101.11743927     101.09039307     101.09845734     101.13024139     101.22142792     101.25666046     101.25666046     101.28726959     101.25476837     101.23593903     101.10486603     100.87582970     100.54894829     100.12549973      99.59672546      98.99747658      98.29612160      97.49979591      96.62433434      95.63648796      94.51799202      93.21659851
         102.49778748     102.49778748     101.72914124     101.72914124     101.11743927     101.09039307     101.09845734     101.13024139     101.22142792     101.25666046     101.26985931     101.27209473     101.18500137     100.98799896     100.70263100     100.32471466      99.86116219      99.30760956      98.67218018      97.94587135      97.12798691      96.20903587      95.17629623      94.00618935      92.68061066
         102.76670074     102.49778748     102.49778748     101.72914124     101.72914124     101.11743927     101.09039307     101.09845734     101.13024139     101.22142792     101.21099854     101.12015915     100.92580605     100.65769005     100.30105782      99.87364006      99.36923981      98.78618813      98.12135124      97.37171936      96.52769852      95.58259964      94.52036858      93.32313919      91.97181129
         103.05901337     102.76670074     102.49778748     102.49778748     101.72914124     101.72914124     101.11743927     101.09039307     101.09845734     101.09973907     100.97169685     100.74442863     100.45031166     100.08860207      99.66962051      99.18452072      98.64039993      98.02343941      97.33522415      96.56623459      95.70754433      94.74667168      93.66992760      92.45775986      91.09246063
         103.35204315     103.05901337     102.76670074     102.49778748     101.72914124     101.72914124     101.33309174     101.86841583     101.03167725     100.80649185     100.49254417     100.12651634      99.71706009      99.26622772      98.77883530      98.24547386      97.65771484      97.01502228      96.30646896      95.52518082      94.65980339      93.69690704      92.62041664      91.41017532      90.04345131
         103.61625671     103.35204315     103.05901337     102.76670074     102.49778748     101.72914124     101.76096869     101.16960335     100.78570938     100.29827499      99.77942848      99.24015236      98.70773125      98.16734886      97.61483955      97.03079414      96.41285706      95.74554253      95.02383995      94.23825264      93.37760353      92.42727470      91.36754417      90.17813873      88.82905006
         103.61625671     103.61625671     103.35204315     103.05901337     102.76670074     102.25506592     101.68013954     101.02202225     100.28102303      99.50822067      98.74388123      98.03139877      97.37472534      96.75948334      96.15128899      95.53029823      94.88330650      94.19955254      93.47178650      92.69114876      91.84861183      90.92507362      89.90180779      88.75584221      87.45297050
         104.34490204     103.61625671     103.61625671     103.35204315     102.95955658     102.37607193     101.59584236     100.62763977      99.53841209      98.39835548      97.32070160      96.42414284      95.67645264      95.00958252      94.36967278      93.72187996      93.05387688      92.35864067      91.63182449      90.86636543      90.05379105      89.17827606      88.21135521      87.13643456      85.90940475
         104.34490204     104.34490204     104.07053375     103.65130424     103.17403984     102.42403221     101.38834572     100.09602356      98.51792908      96.88251114      95.38536644      94.32262802      93.55764008      92.90015221      92.25641060      91.59353828      90.90618896      90.20214653      89.48069191      88.73991203      87.97240067      87.16079521      86.28787231      85.30802155      84.19966507
         104.73616028     104.73616028     104.34490204     103.99971390     103.35262871     102.41401863     101.14162064      99.45539093      97.37352180      94.74787903      92.58437920      91.59157181      90.99964523      90.43496132      89.81321526      89.13293076      88.42135048      87.70345306      86.98921204      86.27788544      85.56790352      84.84913254      84.08530045      83.26722336      82.30392456
         105.29252625     104.82328033     104.72742271     104.27540016     103.51413155     102.42707825     100.94722939      99.00072861      96.30339813      92.43929291      88.12082481      88.09054184      88.10093880      87.67280579      87.06546021      86.33817863      85.56577301      84.82835770      84.12285614      83.44058990      82.80158806      82.18455315      81.59368515      80.95822906      80.23468018
         105.29252625     105.29252625     105.07299995     104.54012489     103.69771004     102.51261711     100.93137741      98.85027885      96.06932449      92.17864227      87.71578217      84.86111069      85.20700455      84.69593239      84.08127022      83.18267250      82.27869034      81.54077148      80.84646606      80.17084503      79.60418701      79.12932205      78.75516129      78.40900612      77.94936943
         106.12169647     105.80449677     105.40356255     104.80294991     103.90668869     102.68105125     101.08346939      99.05662727      96.50223923      93.37776566      90.02374649      86.54878807      84.27667046      82.27828026      80.96848869      79.66846657      78.35033035      77.91747665      77.14462852      76.30382919      75.94289017      75.50532341      75.50619698      75.55095482      75.48132515
         106.34687805     106.09460449     105.69232941     105.04867744     104.12843704     102.90418625     101.35292625      99.45505905      97.18305969      94.59736633      91.81693268      89.10648346      86.68756104      84.53989220      82.73311996      81.04841423      79.29252434      77.48893738      75.89110947      73.91522408      72.50474739      70.97222519      71.78060722      72.44762039      72.82909393
         106.36669159     106.28644943     105.90569496     105.25918388     104.34261703     103.14333916     101.65946579      99.89232445      97.85799217      95.58859062      93.20384789      90.81368065      88.54991722      86.45367432      84.52003479      82.68471527      80.86518669      79.06731033      77.28759003      75.47845650      73.68161964      71.76864052      69.68404770      68.92217064      70.08768845
         106.45741463     106.44571495     106.06975746     105.42732048     104.52304840     103.36063194     101.94473839     100.29001808      98.41606903      96.37094307      94.20282173      92.02139282      89.87727928      87.81737328      85.84416389      83.93562698      82.06386185      80.21551895      78.37737846      76.52749825      74.65402031      72.70726967      70.66285515      68.53992844      67.62873840
         106.62762985     106.58078575     106.18514061     105.54239273     104.65299416     103.52113152     102.15748024     100.58428001      98.82833862      96.91029739      94.90031052      92.82848167      90.76454544      88.72740173      86.73618317      84.78899193      82.87362671      80.98397255      79.10294914      77.22076988      75.31689453      73.36845016      71.35314369      69.23971367      66.92765999
         106.75945663     106.63977242     106.23796463     105.59339714     104.71114349     103.59961891     102.27337837     100.75093842      99.06231499      97.23142433      95.29038048      93.29025459      91.26088905      89.23440933      87.22868729      85.25077057      83.29899597      81.37206459      79.46072197      77.55693626      75.64609146      73.71259117      71.73632050      69.69599915      67.55681038
         106.78582573     106.63181114     106.22139359     105.56984329     104.68689537     103.58283424     102.27187157     100.77474403      99.11641312      97.31713295      95.41015053      93.42810631      91.40520859      89.36783409      87.33735657      85.32594490      83.33846474      81.37924194      79.44279099      77.52721024      75.62164497      73.71731186      71.80405235      69.86112213      67.89723396
         106.74855042     106.56211853     106.13309479     105.46523285     104.57227707     103.46021271     102.14578056     100.64659309      98.98483467      97.17999840      95.26220322      93.26203346      91.21373749      89.14289093      87.07130432      85.01241112      82.98807907      80.99340248      79.03748894      77.11358643      75.22013283      73.35137558      71.49807739      69.67992592      67.86141014
         106.66217041     106.42706680     105.96576500     105.27746773     104.36120987     103.22999763     101.89346123     100.36816978      98.66982651      96.82603645      94.85402489      92.80466843      90.69368172      88.56202507      86.42753792      84.31327438      82.23390770      80.20561981      78.22382927      76.29465866      74.41633606      72.58016014      70.78381157      69.08954239      67.45051956
         106.48210526     106.20620155     105.71913338     105.00090218     104.05665016     102.89217758     101.51742172      99.94041252      98.18400574      96.24827766      94.19076729      92.04248428      89.84878731      87.62443352      85.40332603      83.20152092      81.06478119      78.99553871      76.98416138      75.02500343      73.21102333      71.41885376      69.58333206      68.33654213      66.98059654
         106.17314911     105.90399551     105.38663101     104.63911629     103.65863991     102.45789337     101.03161812      99.38648605      97.52867317      95.47524452      93.26077080      90.98691368      88.67087746      86.33921051      83.96886826      81.64697075      79.45501328      77.37437057      75.35723877      73.74999809      72.93519783      71.96184349      70.90220642      69.80881882      68.55411720
         105.77892303     105.54220963     104.97693253     104.19061279     103.17613983     101.92979622     100.45218086      98.72283554      96.73576927      94.49558640      92.07012177      89.57506180      87.13931084      84.70150185      82.16830063      79.78723526      78.02960396      77.23455811      76.41640091      75.54313087      74.58551788      73.51549339      72.36389160      71.11753273      69.77595520
         105.47396088     105.08039856     104.47469330     103.67066193     102.60459709     101.32226944      99.79922676      98.00334167      95.86362076      93.37284279      90.53660011      87.74400330      85.23791122      82.78252602      80.83748055      80.26808548      79.65618515      78.88102913      78.01061058      77.05685234      75.98909378      74.81171608      73.53258896      72.14471054      70.66965103
         105.08039856     104.62159729     103.59868622     103.10014915     101.92273712     100.64435577      99.10616112      97.26850319      95.04264259      92.21892738      88.52486801      85.48961449      83.59666824      82.88979721      82.35052872      81.79637527      81.10474586      80.27905655      79.34626770      78.29668808      77.13302231      75.84167862      74.43029022      72.88670158      71.25962257
         104.62159729     103.59868622     103.59868622     101.67651367     101.14020920      99.89065552      98.38174629      96.57367325      94.41645622      91.69858742      87.74611664      86.19580650      85.35937691      84.57714653      83.86251640      83.13140678      82.33440018      81.43298149      80.42366982      79.29109192      78.02641678      76.62263489      75.06969261      73.36295891      71.52943230
         103.59868622     103.59868622     101.67651367     100.96144104     100.96144104      98.65974426      97.60369682      95.88323784      93.92181206      91.78232765      89.55702782      87.91988182      86.78853035      85.86619377      85.03194809      84.19359207      83.31376266      82.34068680      81.26397705      80.05751228      78.71150970      77.18747330      75.49265480      73.59112930      71.51416588
         103.59868622     103.59868622     100.96144104     100.96144104      98.65974426      98.65974426      97.10437775      95.37735748      93.28974915      91.70517540      90.17173767      88.79852867      87.68752861      86.73517227      85.85040092      84.96535110      84.02923012      83.00844955      81.87925148      80.61467934      79.19329643      77.58152962      75.73358727      73.61971664      71.21074295
         103.59868622     100.96144104     100.96144104     100.96144104      98.65974426      97.10437775      95.37735748      93.56920624      92.69839478      91.39332581      90.16832542      89.06454659      88.08753204      87.19985771      86.33197594      85.44065666      84.48513412      83.43728638      82.27430534      80.97200584      79.50488281      77.82879066      75.87783432      73.55044174      70.65744781
         100.96144104     100.96144104     100.96144104      98.65974426      98.65974426      97.10437775      95.37735748      92.69839478      91.39332581      90.28887939      90.00703430      88.94064331      88.06149673      87.29290390      86.49720764      85.64335251      84.68994904      83.63346100      82.45336914      81.13955307      79.66286469      77.97682953      76.01771355      73.63847542      70.48183441
         100.96144104     100.96144104      98.65974426      98.65974426      97.10437775      95.37735748      92.69839478      92.69839478      91.39332581      90.28887939      88.94064331      88.20022583      88.00247955      87.21867371      86.23340607      85.56366348      84.64650154      83.60182381      82.41543007      81.11207008      79.66426277      78.02684402      76.15681267      74.01395798      71.51958656
         100.96144104     100.96144104      98.65974426      98.65974426      97.10437775      92.69839478      92.69839478      91.39332581      90.28887939      90.28887939      88.94064331      88.20022583      87.21867371      87.21867371      86.23340607      84.74906158      84.50838470      82.92853546      81.69170666      80.89948845      79.47913170      77.94168091      76.20717239      74.36301231      72.50106621
         100.96144104      98.65974426      98.65974426      97.10437775      95.37735748      92.69839478      92.69839478      91.39332581      90.28887939      90.28887939      88.20022583      88.20022583      87.21867371      86.23340607      86.23340607      84.74906158      84.50838470      82.92853546      81.32525635      79.56042480      79.20593262      76.92732239      75.94422340      74.27432060      72.86680222
          98.65974426      98.65974426      98.65974426      97.10437775      92.69839478      92.69839478      91.39332581      90.28887939      90.28887939      88.94064331      88.20022583      88.20022583      87.21867371      86.23340607      86.23340607      84.74906158      82.92853546      82.92853546      81.32525635      79.56042480      79.20593262      76.92732239      75.95397186      74.19193268      72.76672363
          98.65974426      98.65974426      97.10437775      92.69839478      92.69839478      92.69839478      91.39332581      90.28887939      90.28887939      88.20022583      88.20022583      87.21867371      87.21867371      86.23340607      84.74906158      84.74906158      82.92853546      81.32525635      81.32525635      79.56042480      76.92732239      76.92732239      74.19193268      74.19193268      71.48468018
          98.65974426      98.65974426      97.10437775      92.69839478      92.69839478      91.39332581      90.28887939      90.28887939      90.28887939      88.20022583      88.20022583      87.21867371      86.23340607      86.23340607      84.74906158      84.74906158      82.92853546      81.32525635      79.56042480      79.56042480      76.92732239      76.92732239      74.19193268      74.19193268      71.48468018
          98.65974426      97.10437775      92.69839478      92.69839478      92.69839478      91.39332581      90.28887939      90.28887939      88.20022583      88.20022583      88.20022583      87.21867371      86.23340607      86.23340607      84.74906158      84.74906158      82.92853546      81.32525635      79.56042480      79.56042480      76.92732239      76.92732239      74.19193268      74.19193268      71.48468018
    INTERNAL  FACTOR  1.0
         101.72914124     101.09039307     101.09845734     101.13024139     101.22142792     101.25666046     101.25666046     101.25666046     101.28726959     101.28726959     101.23593903     101.23593903     101.02922058     101.02922058     100.70333862     100.61952209      99.61818695      99.61818695      99.06137085      97.70894623      97.52515411      96.95259857      95.87101746      95.09060669      94.44600677
         101.72914124     101.72914124     101.09039307     101.09845734     101.13024139     101.22142792     101.25666046     101.25666046     101.25666046     101.28726959     101.23593903     101.23593903     101.23593903     101.02922058     100.70333862     100.61952209      99.61818695      99.61818695      99.06137085      97.70894623      97.52515411      96.95259857      95.87101746      95.09060669      94.44600677
         102.49778748     101.72914124     101.72914124     101.09039307     101.09845734     101.13024139     101.22142792     101.25666046     101.25666046     101.28726959     101.28726959     101.23593903     101.23593903     101.02922058     100.70333862     100.61952209     100.14676666      99.60565567      99.11627960      98.42719078      97.63033295      96.83052444      95.90703964      94.86996460      93.56759834
         102.49778748     102.49778748     101.72914124     101.11743927     101.09039307     101.09845734     101.13024139     101.22142792     101.25666046     101.25666046     101.28726959     101.25476837     101.23593903     101.10486603     100.87582970     100.54894829     100.12549973      99.59672546      98.99747658      98.29612160      97.49979591      96.62433434      95.63648796      94.51799202      93.21659851
         102.49778748     102.49778748     101.72914124     101.72914124     101.11743927     101.09039307     101.09845734     101.13024139     101.22142792     101.25666046     101.26985931     101.27209473     101.18500137     100.98799896     100.70263100     100.32471466      99.86116219      99.30760956      98.67218018      97.94587135      97.12798691      96.20903587      95.17629623      94.00618935      92.68061066
         102.76670074     102.49778748     102.49778748     101.72914124     101.72914124     101.11743927     101.09039307     101.09845734     101.13024139     101.22142792     101.21099854     101.12015915     100.92580605     100.65769005     100.30105782      99.87364006      99.36923981      98.78618813      98.12135124      97.37171936      96.52769852      95.58259964      94.52036858      93.32313919      91.97181129
         103.05901337     102.76670074     102.49778748     102.49778748     101.72914124     101.72914124     101.11743927     101.09039307     101.09845734     101.09973907     100.97169685     100.74442863     100.45031166     100.08860207      99.66962051      99.18452072      98.64039993      98.02343941      97.33522415      96.56623459      95.70754433      94.74667168      93.66992760      92.45775986      91.09246063
         103.35204315     103.05901337     102.76670074     102.49778748     101.72914124     101.72914124     101.33309174     101.86841583     101.03167725     100.80649185     100.49254417     100.12651634      99.71706009      99.26622772      98.77883530      98.24547386      97.65771484      97.01502228      96.30646896      95.52518082      94.65980339      93.69690704      92.62041664      91.41017532      90.04345131
         103.61625671     103.35204315     103.05901337     102.76670074     102.49778748     101.72914124     101.76096869     101.16960335     100.78570938     100.29827499      99.77942848      99.24015236      98.70773125      98.16734886      97.61483955      97.03079414      96.41285706      95.74554253      95.02383995      94.23825264      93.37760353      92.42727470      91.36754417      90.17813873      88.82905006
         103.61625671     103.61625671     103.35204315     103.05901337     102.76670074     102.25506592     101.68013954     101.02202225     100.28102303      99.50822067      98.74388123      98.03139877      97.37472534      96.75948334      96.15128899      95.53029823      94.88330650      94.19955254      93.47178650      92.69114876      91.84861183      90.92507362      89.90180779      88.75584221      87.45297050
         104.34490204     103.61625671     103.61625671     103.35204315     102.95955658     102.37607193     101.59584236     100.62763977      99.53841209      98.39835548      97.32070160      96.42414284      95.67645264      95.00958252      94.36967278      93.72187996      93.05387688      92.35864067      91.63182449      90.86636543      90.05379105      89.17827606      88.21135521      87.13643456      85.90940475
         104.34490204     104.34490204     104.07053375     103.65130424     103.17403984     102.42403221     101.38834572     100.09602356      98.51792908      96.88251114      95.38536644      94.32262802      93.55764008      92.90015221      92.25641060      91.59353828      90.90618896      90.20214653      89.48069191      88.73991203      87.97240067      87.16079521      86.28787231      85.30802155      84.19966507
         104.73616028     104.73616028     104.34490204     103.99971390     103.35262871     102.41401863     101.14162064      99.45539093      97.37352180      94.74787903      92.58437920      91.59157181      90.99964523      90.43496132      89.81321526      89.13293076      88.42135048      87.70345306      86.98921204      86.27788544      85.56790352      84.84913254      84.08530045      83.26722336      82.30392456
         105.29252625     104.82328033     104.72742271     104.27540016     103.51413155     102.42707825     100.94722939      99.00072861      96.30339813      92.43929291      88.12082481      88.09054184      88.10093880      87.67280579      87.06546021      86.33817863      85.56577301      84.82835770      84.12285614      83.44058990      82.80158806      82.18455315      81.59368515      80.95822906      80.23468018
         105.29252625     105.29252625     105.07299995     104.54012489     103.69771004     102.51261711     100.93137741      98.85027885      96.06932449      92.17864227      87.71578217      84.86111069      85.20700455      84.69593239      84.08127022      83.18267250      82.27869034      81.54077148      80.84646606      80.17084503      79.60418701      79.12932205      78.75516129      78.40900612      77.94936943
         106.12169647     105.80449677     105.40356255     104.80294991     103.90668869     102.68105125     101.08346939      99.05662727      96.50223923      93.37776566      90.02374649      86.54878807      84.27667046      82.27828026      80.96848869      79.66846657      78.35033035      77.91747665      77.14462852      76.30382919      75.94289017      75.50532341      75.50619698      75.55095482      75.48132515
         106.34687805     106.09460449     105.69232941     105.04867744     104.12843704     102.90418625     101.35292625      99.45505905      97.18305969      94.59736633      91.81693268      89.10648346      86.68756104      84.53989220      82.73311996      81.04841423      79.29252434      77.48893738      75.89110947      73.91522408      72.50474739      70.97222519      71.78060722      72.44762039      72.82909393
         106.36669159     106.28644943     105.90569496     105.25918388     104.34261703     103.14333916     101.65946579      99.89232445      97.85799217      95.58859062      93.20384789      90.81368065      88.54991722      86.45367432      84.52003479      82.68471527      80.86518669      79.06731033      77.28759003      75.47845650      73.68161964      71.76864052      69.68404770      68.92217064      70.08768845
         106.45741463     106.44571495     106.06975746     105.42732048     104.52304840     103.36063194     101.94473839     100.29001808      98.41606903      96.37094307      94.20282173      92.02139282      89.87727928      87.81737328      85.84416389      83.93562698      82.06386185      80.21551895      78.37737846      76.52749825      74.65402031      72.70726967      70.66285515      68.53992844      67.62873840
         106.62762985     106.58078575     106.18514061     105.54239273     104.65299416     103.52113152     102.15748024     100.58428001      98.82833862      96.91029739      94.90031052      92.82848167      90.76454544      88.72740173      86.73618317      84.78899193      82.87362671      80.98397255      79.10294914      77.22076988      75.31689453      73.36845016      71.35314369      69.23971367      66.92765999
         106.75945663     106.63977242     106.23796463     105.59339714     104.71114349     103.59961891     102.27337837     100.75093842      99.06231499      97.23142433      95.29038048      93.29025459      91.26088905      89.23440933      87.22868729      85.25077057      83.29899597      81.37206459      79.46072197      77.55693626      75.64609146      73.71259117      71.73632050      69.69599915      67.55681038
         106.78582573     106.63181114     106.22139359     105.56984329     104.68689537     103.58283424     102.27187157     100.77474403      99.11641312      97.31713295      95.41015053      93.42810631      91.40520859      89.36783409      87.33735657      85.32594490      83.33846474      81.37924194      79.44279099      77.52721024      75.62164497      73.71731186      71.80405235      69.86112213      67.89723396
         106.74855042     106.56211853     106.13309479     105.46523285     104.57227707     103.46021271     102.14578056     100.64659309      98.98483467      97.17999840      95.26220322      93.26203346      91.21373749      89.14289093      87.07130432      85.01241112      82.98807907      80.99340248      79.03748894      77.11358643      75.22013283      73.35137558      71.49807739      69.67992592      67.86141014
         106.66217041     106.42706680     105.96576500     105.27746773     104.36120987     103.22999763     101.89346123     100.36816978      98.66982651      96.82603645      94.85402489      92.80466843      90.69368172      88.56202507      86.42753792      84.31327438      82.23390770      80.20561981      78.22382927      76.29465866      74.41633606      72.58016014      70.78381157      69.08954239      67.45051956
         106.48210526     106.20620155     105.71913338     105.00090218     104.05665016     102.89217758     101.51742172      99.94041252      98.18400574      96.24827766      94.19076729      92.04248428      89.84878731      87.62443352      85.40332603      83.20152092      81.06478119      78.99553871      76.98416138      75.02500343      73.21102333      71.41885376      69.58333206      68.33654213      66.98059654
         106.17314911     105.90399551     105.38663101     104.63911629     103.65863991     102.45789337     101.03161812      99.38648605      97.52867317      95.47524452      93.26077080      90.98691368      88.67087746      86.33921051      83.96886826      81.64697075      79.45501328      77.37437057      75.35723877      73.74999809      72.93519783      71.96184349      70.90220642      69.80881882      68.55411720
         105.77892303     105.54220963     104.97693253     104.19061279     103.17613983     101.92979622     100.45218086      98.72283554      96.73576927      94.49558640      92.07012177      89.57506180      87.13931084      84.70150185      82.16830063      79.78723526      78.02960396      77.23455811      76.41640091      75.54313087      74.58551788      73.51549339      72.36389160      71.11753273      69.77595520
         105.47396088     105.08039856     104.47469330     103.67066193     102.60459709     101.32226944      99.79922676      98.00334167      95.86362076      93.37284279      90.53660011      87.74400330      85.23791122      82.78252602      80.83748055      80.26808548      79.65618515      78.88102913      78.01061058      77.05685234      75.98909378      74.81171608      73.53258896      72.14471054      70.66965103