# File generated by Flopy version 3.10.0.dev3 on 06/16/2025 at 08:45:42.
BEGIN options
  auxiliary  depth
  AUXDEPTHNAME  depth
END options

BEGIN dimensions
  MAXBOUND  1919
END dimensions

BEGIN period  1
  1 3 1 9.15583439E+01 2.50000000E+06 1.00000000E+00
  1 3 2 9.01669006E+01 2.50000000E+06 1.00000000E+00
  1 3 3 8.87470594E+01 2.50000000E+06 1.00000000E+00
  1 3 4 8.65312500E+01 2.50000000E+06 1.00000000E+00
  1 4 1 9.12520542E+01 2.50000000E+06 1.00000000E+00
  1 4 2 8.96672421E+01 2.50000000E+06 1.00000000E+00
  1 4 3 8.78915634E+01 2.50000000E+06 1.00000000E+00
  1 4 4 8.59680462E+01 2.50000000E+06 1.00000000E+00
  1 4 5 8.37530479E+01 2.50000000E+06 1.00000000E+00
  1 4 6 8.15406284E+01 2.50000000E+06 1.00000000E+00
  1 4 7 7.98720876E+01 2.50000000E+06 1.00000000E+00
  1 4 8 7.93407462E+01 2.50000000E+06 1.00000000E+00
  1 5 1 9.06950798E+01 2.50000000E+06 1.00000000E+00
  1 5 2 8.90451336E+01 2.50000000E+06 1.00000000E+00
  1 5 3 8.72120457E+01 2.50000000E+06 1.00000000E+00
  1 5 4 8.51934490E+01 2.50000000E+06 1.00000000E+00
  1 5 5 8.29858093E+01 2.50000000E+06 1.00000000E+00
  1 5 6 8.06165619E+01 2.50000000E+06 1.00000000E+00
  1 5 7 7.81034508E+01 2.50000000E+06 1.00000000E+00
  1 5 8 7.55530243E+01 2.50000000E+06 1.00000000E+00
  1 5 9 7.30109997E+01 2.50000000E+06 1.00000000E+00
  1 5 10 7.09967594E+01 2.50000000E+06 1.00000000E+00
  1 5 11 6.97232475E+01 2.50000000E+06 1.00000000E+00
  1 5 12 6.96018391E+01 2.50000000E+06 1.00000000E+00
  1 5 13 6.96115067E+01 2.50000000E+06 1.00000000E+00
  1 5 14 6.66919403E+01 2.50000000E+06 1.00000000E+00
  1 5 15 6.65064545E+01 2.50000000E+06 1.00000000E+00
  1 6 1 8.99555321E+01 2.50000000E+06 1.00000000E+00
  1 6 2 8.82576847E+01 2.50000000E+06 1.00000000E+00
  1 6 3 8.63660183E+01 2.50000000E+06 1.00000000E+00
  1 6 4 8.42654438E+01 2.50000000E+06 1.00000000E+00
  1 6 5 8.19702320E+01 2.50000000E+06 1.00000000E+00
  1 6 6 7.94796772E+01 2.50000000E+06 1.00000000E+00
  1 6 7 7.68848534E+01 2.50000000E+06 1.00000000E+00
  1 6 8 7.43054905E+01 2.50000000E+06 1.00000000E+00
  1 6 9 7.19461441E+01 2.50000000E+06 1.00000000E+00
  1 6 10 7.00224838E+01 2.50000000E+06 1.00000000E+00
  1 6 11 6.85462952E+01 2.50000000E+06 1.00000000E+00
  1 6 12 6.75238819E+01 2.50000000E+06 1.00000000E+00
  1 6 13 6.68900566E+01 2.50000000E+06 1.00000000E+00
  1 6 14 6.65118599E+01 2.50000000E+06 1.00000000E+00
  1 6 15 6.62193413E+01 2.50000000E+06 1.00000000E+00
  1 6 16 6.59577827E+01 2.50000000E+06 1.00000000E+00
  1 6 17 6.57412491E+01 2.50000000E+06 1.00000000E+00
  1 6 18 6.54538021E+01 2.50000000E+06 1.00000000E+00
  1 6 19 6.52072525E+01 2.50000000E+06 1.00000000E+00
  1 6 20 6.46532822E+01 2.50000000E+06 1.00000000E+00
  1 7 1 8.90526714E+01 2.50000000E+06 1.00000000E+00
  1 7 2 8.73193836E+01 2.50000000E+06 1.00000000E+00
  1 7 3 8.53659191E+01 2.50000000E+06 1.00000000E+00
  1 7 4 8.31862888E+01 2.50000000E+06 1.00000000E+00
  1 7 5 8.07548332E+01 2.50000000E+06 1.00000000E+00
  1 7 6 7.80863285E+01 2.50000000E+06 1.00000000E+00
  1 7 7 7.52456837E+01 2.50000000E+06 1.00000000E+00
  1 7 8 7.24533958E+01 2.50000000E+06 1.00000000E+00
  1 7 9 6.99775677E+01 2.50000000E+06 1.00000000E+00
  1 7 10 6.81818829E+01 2.50000000E+06 1.00000000E+00
  1 7 11 6.70761929E+01 2.50000000E+06 1.00000000E+00
  1 7 12 6.63829346E+01 2.50000000E+06 1.00000000E+00
  1 7 13 6.60198555E+01 2.50000000E+06 1.00000000E+00
  1 7 14 6.58060837E+01 2.50000000E+06 1.00000000E+00
  1 7 15 6.56693115E+01 2.50000000E+06 1.00000000E+00
  1 7 16 6.55249100E+01 2.50000000E+06 1.00000000E+00
  1 7 17 6.53608418E+01 2.50000000E+06 1.00000000E+00
  1 7 18 6.51431084E+01 2.50000000E+06 1.00000000E+00
  1 7 19 6.48596649E+01 2.50000000E+06 1.00000000E+00
  1 7 20 6.44937096E+01 2.50000000E+06 1.00000000E+00
  1 7 21 6.40342236E+01 2.50000000E+06 1.00000000E+00
  1 7 22 6.33368416E+01 2.50000000E+06 1.00000000E+00
  1 8 1 8.79953880E+01 2.50000000E+06 1.00000000E+00
  1 8 2 8.62377701E+01 2.50000000E+06 1.00000000E+00
  1 8 3 8.42432175E+01 2.50000000E+06 1.00000000E+00
  1 8 4 8.19677925E+01 2.50000000E+06 1.00000000E+00
  1 8 5 7.93893585E+01 2.50000000E+06 1.00000000E+00
  1 8 6 7.64771595E+01 2.50000000E+06 1.00000000E+00
  1 8 7 7.32162571E+01 2.50000000E+06 1.00000000E+00
  1 8 8 6.98054752E+01 2.50000000E+06 1.00000000E+00
  1 8 9 6.68461170E+01 2.50000000E+06 1.00000000E+00
  1 8 10 6.52894802E+01 2.50000000E+06 1.00000000E+00
  1 8 11 6.47347851E+01 2.50000000E+06 1.00000000E+00
  1 8 12 6.45894814E+01 2.50000000E+06 1.00000000E+00
  1 8 13 6.46149445E+01 2.50000000E+06 1.00000000E+00
  1 8 14 6.46813774E+01 2.50000000E+06 1.00000000E+00
  1 8 15 6.47254009E+01 2.50000000E+06 1.00000000E+00
  1 8 16 6.47334404E+01 2.50000000E+06 1.00000000E+00
  1 8 17 6.46685600E+01 2.50000000E+06 1.00000000E+00
  1 8 18 6.45350418E+01 2.50000000E+06 1.00000000E+00
  1 8 19 6.43137627E+01 2.50000000E+06 1.00000000E+00
  1 8 20 6.39956741E+01 2.50000000E+06 1.00000000E+00
  1 8 21 6.35654621E+01 2.50000000E+06 1.00000000E+00
  1 8 22 6.30422697E+01 2.50000000E+06 1.00000000E+00
  1 8 23 6.24122858E+01 2.50000000E+06 1.00000000E+00
  1 8 24 6.14698600E+01 2.50000000E+06 1.00000000E+00
  1 9 1 8.67963181E+01 2.50000000E+06 1.00000000E+00
  1 9 2 8.50387878E+01 2.50000000E+06 1.00000000E+00
  1 9 3 8.30197315E+01 2.50000000E+06 1.00000000E+00
  1 9 4 8.06885529E+01 2.50000000E+06 1.00000000E+00
  1 9 5 7.79700565E+01 2.50000000E+06 1.00000000E+00
  1 9 6 7.47981377E+01 2.50000000E+06 1.00000000E+00
  1 9 7 7.09874573E+01 2.50000000E+06 1.00000000E+00
  1 9 8 6.63915844E+01 2.50000000E+06 1.00000000E+00
  1 9 9 6.14337225E+01 2.50000000E+06 1.00000000E+00
  1 9 10 6.09311953E+01 2.50000000E+06 1.00000000E+00
  1 9 11 6.16590776E+01 2.50000000E+06 1.00000000E+00
  1 9 12 6.22666655E+01 2.50000000E+06 1.00000000E+00
  1 9 13 6.27636938E+01 2.50000000E+06 1.00000000E+00
  1 9 14 6.31530323E+01 2.50000000E+06 1.00000000E+00
  1 9 15 6.34501486E+01 2.50000000E+06 1.00000000E+00
  1 9 16 6.36112728E+01 2.50000000E+06 1.00000000E+00
  1 9 17 6.36770353E+01 2.50000000E+06 1.00000000E+00
  1 9 18 6.36343603E+01 2.50000000E+06 1.00000000E+00
  1 9 19 6.34830160E+01 2.50000000E+06 1.00000000E+00
  1 9 20 6.32269964E+01 2.50000000E+06 1.00000000E+00
  1 9 21 6.28716154E+01 2.50000000E+06 1.00000000E+00
  1 9 22 6.24072151E+01 2.50000000E+06 1.00000000E+00
  1 9 23 6.18449574E+01 2.50000000E+06 1.00000000E+00
  1 9 24 6.11983624E+01 2.50000000E+06 1.00000000E+00
  1 10 1 8.54620743E+01 2.50000000E+06 1.00000000E+00
  1 10 2 8.37400684E+01 2.50000000E+06 1.00000000E+00
  1 10 3 8.17361526E+01 2.50000000E+06 1.00000000E+00
  1 10 4 7.93916664E+01 2.50000000E+06 1.00000000E+00
  1 10 5 7.66202545E+01 2.50000000E+06 1.00000000E+00
  1 10 6 7.32770844E+01 2.50000000E+06 1.00000000E+00
  1 10 7 6.91139641E+01 2.50000000E+06 1.00000000E+00
  1 10 8 6.34484425E+01 2.50000000E+06 1.00000000E+00
  1 10 10 5.59566841E+01 2.50000000E+06 1.00000000E+00
  1 10 11 5.82392445E+01 2.50000000E+06 1.00000000E+00
  1 10 12 5.96421995E+01 2.50000000E+06 1.00000000E+00
  1 10 13 6.06322336E+01 2.50000000E+06 1.00000000E+00
  1 10 14 6.13722582E+01 2.50000000E+06 1.00000000E+00
  1 10 15 6.18850260E+01 2.50000000E+06 1.00000000E+00
  1 10 16 6.22253428E+01 2.50000000E+06 1.00000000E+00
  1 10 17 6.24006643E+01 2.50000000E+06 1.00000000E+00
  1 10 18 6.24485922E+01 2.50000000E+06 1.00000000E+00
  1 10 19 6.23731441E+01 2.50000000E+06 1.00000000E+00
  1 10 20 6.21821136E+01 2.50000000E+06 1.00000000E+00
  1 10 21 6.18883686E+01 2.50000000E+06 1.00000000E+00
  1 10 22 6.14958115E+01 2.50000000E+06 1.00000000E+00
  1 10 23 6.10067215E+01 2.50000000E+06 1.00000000E+00
  1 10 24 6.04318647E+01 2.50000000E+06 1.00000000E+00
  1 11 1 8.39973698E+01 2.50000000E+06 1.00000000E+00
  1 11 2 8.23471813E+01 2.50000000E+06 1.00000000E+00
  1 11 3 8.04139080E+01 2.50000000E+06 1.00000000E+00
  1 11 4 7.81254787E+01 2.50000000E+06 1.00000000E+00
  1 11 5 7.54033623E+01 2.50000000E+06 1.00000000E+00
  1 11 6 7.21127758E+01 2.50000000E+06 1.00000000E+00
  1 11 7 6.80899410E+01 2.50000000E+06 1.00000000E+00
  1 11 8 6.29647694E+01 2.50000000E+06 1.00000000E+00
  1 11 11 5.50808344E+01 2.50000000E+06 1.00000000E+00
  1 11 12 5.69079428E+01 2.50000000E+06 1.00000000E+00
  1 11 13 5.83386269E+01 2.50000000E+06 1.00000000E+00
  1 11 14 5.93634157E+01 2.50000000E+06 1.00000000E+00
  1 11 15 6.00989037E+01 2.50000000E+06 1.00000000E+00
  1 11 16 6.05847330E+01 2.50000000E+06 1.00000000E+00
  1 11 17 6.08691893E+01 2.50000000E+06 1.00000000E+00
  1 11 18 6.09946032E+01 2.50000000E+06 1.00000000E+00
  1 11 19 6.09826593E+01 2.50000000E+06 1.00000000E+00
  1 11 20 6.08496552E+01 2.50000000E+06 1.00000000E+00
  1 11 21 6.06133919E+01 2.50000000E+06 1.00000000E+00
  1 11 22 6.02774315E+01 2.50000000E+06 1.00000000E+00
  1 11 23 5.98586636E+01 2.50000000E+06 1.00000000E+00
  1 11 24 5.93549633E+01 2.50000000E+06 1.00000000E+00
  1 12 1 8.24018269E+01 2.50000000E+06 1.00000000E+00
  1 12 2 8.08824062E+01 2.50000000E+06 1.00000000E+00
  1 12 3 7.90661507E+01 2.50000000E+06 1.00000000E+00
  1 12 4 7.69118080E+01 2.50000000E+06 1.00000000E+00
  1 12 5 7.43280544E+01 2.50000000E+06 1.00000000E+00
  1 12 6 7.12727528E+01 2.50000000E+06 1.00000000E+00
  1 12 7 6.75819607E+01 2.50000000E+06 1.00000000E+00
  1 12 8 6.33103008E+01 2.50000000E+06 1.00000000E+00
  1 12 9 5.83940220E+01 2.50000000E+06 1.00000000E+00
  1 12 12 5.41447411E+01 2.50000000E+06 1.00000000E+00
  1 12 13 5.59854126E+01 2.50000000E+06 1.00000000E+00
  1 12 14 5.72641897E+01 2.50000000E+06 1.00000000E+00
  1 12 15 5.81503515E+01 2.50000000E+06 1.00000000E+00
  1 12 16 5.87367945E+01 2.50000000E+06 1.00000000E+00
  1 12 17 5.90918636E+01 2.50000000E+06 1.00000000E+00
  1 12 18 5.92742634E+01 2.50000000E+06 1.00000000E+00
  1 12 19 5.93063402E+01 2.50000000E+06 1.00000000E+00
  1 12 20 5.92200842E+01 2.50000000E+06 1.00000000E+00
  1 12 21 5.90309162E+01 2.50000000E+06 1.00000000E+00
  1 12 22 5.87530327E+01 2.50000000E+06 1.00000000E+00
  1 12 23 5.83944464E+01 2.50000000E+06 1.00000000E+00
  1 12 24 5.79658556E+01 2.50000000E+06 1.00000000E+00
  1 13 1 8.06778736E+01 2.50000000E+06 1.00000000E+00
  1 13 2 7.93139801E+01 2.50000000E+06 1.00000000E+00
  1 13 3 7.76852207E+01 2.50000000E+06 1.00000000E+00
  1 13 4 7.57102165E+01 2.50000000E+06 1.00000000E+00
  1 13 5 7.33646984E+01 2.50000000E+06 1.00000000E+00
  1 13 6 7.05662899E+01 2.50000000E+06 1.00000000E+00
  1 13 7 6.73305759E+01 2.50000000E+06 1.00000000E+00
  1 13 8 6.36532087E+01 2.50000000E+06 1.00000000E+00
  1 13 9 5.96480980E+01 2.50000000E+06 1.00000000E+00
  1 13 10 5.55277624E+01 2.50000000E+06 1.00000000E+00
  1 13 13 5.37283688E+01 2.50000000E+06 1.00000000E+00
  1 13 14 5.51250639E+01 2.50000000E+06 1.00000000E+00
  1 13 15 5.60708733E+01 2.50000000E+06 1.00000000E+00
  1 13 16 5.66935997E+01 2.50000000E+06 1.00000000E+00
  1 13 17 5.70799227E+01 2.50000000E+06 1.00000000E+00
  1 13 18 5.72843275E+01 2.50000000E+06 1.00000000E+00
  1 13 19 5.73436985E+01 2.50000000E+06 1.00000000E+00
  1 13 20 5.72836685E+01 2.50000000E+06 1.00000000E+00
  1 13 21 5.71273251E+01 2.50000000E+06 1.00000000E+00
  1 13 22 5.68922091E+01 2.50000000E+06 1.00000000E+00
  1 13 23 5.65894871E+01 2.50000000E+06 1.00000000E+00
  1 13 24 5.62279215E+01 2.50000000E+06 1.00000000E+00
  1 14 1 7.88167229E+01 2.50000000E+06 1.00000000E+00
  1 14 2 7.76672268E+01 2.50000000E+06 1.00000000E+00
  1 14 3 7.62476902E+01 2.50000000E+06 1.00000000E+00
  1 14 4 7.45100193E+01 2.50000000E+06 1.00000000E+00
  1 14 5 7.24113827E+01 2.50000000E+06 1.00000000E+00
  1 14 6 6.99368248E+01 2.50000000E+06 1.00000000E+00
  1 14 7 6.70965958E+01 2.50000000E+06 1.00000000E+00
  1 14 8 6.39058895E+01 2.50000000E+06 1.00000000E+00
  1 14 9 6.03973122E+01 2.50000000E+06 1.00000000E+00
  1 14 10 5.67516890E+01 2.50000000E+06 1.00000000E+00
  1 14 11 5.29169140E+01 2.50000000E+06 1.00000000E+00
  1 14 13 5.16469421E+01 2.50000000E+06 1.00000000E+00
  1 14 14 5.29876499E+01 2.50000000E+06 1.00000000E+00
  1 14 15 5.38770771E+01 2.50000000E+06 1.00000000E+00
  1 14 16 5.44553661E+01 2.50000000E+06 1.00000000E+00
  1 14 17 5.48205509E+01 2.50000000E+06 1.00000000E+00
  1 14 18 5.50164614E+01 2.50000000E+06 1.00000000E+00
  1 14 19 5.50757799E+01 2.50000000E+06 1.00000000E+00
  1 14 20 5.50219908E+01 2.50000000E+06 1.00000000E+00
  1 14 21 5.48805695E+01 2.50000000E+06 1.00000000E+00
  1 14 22 5.46747780E+01 2.50000000E+06 1.00000000E+00
  1 14 23 5.44224224E+01 2.50000000E+06 1.00000000E+00
  1 14 24 5.41306591E+01 2.50000000E+06 1.00000000E+00
  1 15 1 7.68052025E+01 2.50000000E+06 1.00000000E+00
  1 15 2 7.59274807E+01 2.50000000E+06 1.00000000E+00
  1 15 3 7.47502708E+01 2.50000000E+06 1.00000000E+00
  1 15 4 7.32674007E+01 2.50000000E+06 1.00000000E+00
  1 15 5 7.14510670E+01 2.50000000E+06 1.00000000E+00
  1 15 6 6.92825108E+01 2.50000000E+06 1.00000000E+00
  1 15 7 6.67790813E+01 2.50000000E+06 1.00000000E+00
  1 15 8 6.39651585E+01 2.50000000E+06 1.00000000E+00
  1 15 9 6.08960772E+01 2.50000000E+06 1.00000000E+00
  1 15 10 5.75787373E+01 2.50000000E+06 1.00000000E+00
  1 15 11 5.40463047E+01 2.50000000E+06 1.00000000E+00
  1 15 14 5.08781672E+01 2.50000000E+06 1.00000000E+00
  1 15 15 5.15453825E+01 2.50000000E+06 1.00000000E+00
  1 15 16 5.19906664E+01 2.50000000E+06 1.00000000E+00
  1 15 17 5.22868824E+01 2.50000000E+06 1.00000000E+00
  1 15 18 5.24482908E+01 2.50000000E+06 1.00000000E+00
  1 15 19 5.24818783E+01 2.50000000E+06 1.00000000E+00
  1 15 20 5.24083443E+01 2.50000000E+06 1.00000000E+00
  1 15 21 5.22602892E+01 2.50000000E+06 1.00000000E+00
  1 15 22 5.20662050E+01 2.50000000E+06 1.00000000E+00
  1 15 23 5.18527861E+01 2.50000000E+06 1.00000000E+00
  1 15 24 5.16310787E+01 2.50000000E+06 1.00000000E+00
  1 16 1 7.46748524E+01 2.50000000E+06 1.00000000E+00
  1 16 2 7.40896111E+01 2.50000000E+06 1.00000000E+00
  1 16 3 7.31915855E+01 2.50000000E+06 1.00000000E+00
  1 16 4 7.19767017E+01 2.50000000E+06 1.00000000E+00
  1 16 5 7.04206734E+01 2.50000000E+06 1.00000000E+00
  1 16 6 6.85514145E+01 2.50000000E+06 1.00000000E+00
  1 16 7 6.63608131E+01 2.50000000E+06 1.00000000E+00
  1 16 8 6.38957520E+01 2.50000000E+06 1.00000000E+00
  1 16 9 6.11576395E+01 2.50000000E+06 1.00000000E+00
  1 16 10 5.81911039E+01 2.50000000E+06 1.00000000E+00
  1 16 11 5.49743805E+01 2.50000000E+06 1.00000000E+00
  1 16 12 5.14285908E+01 2.50000000E+06 1.00000000E+00
  1 16 14 4.86780701E+01 2.50000000E+06 1.00000000E+00
  1 16 15 4.89734774E+01 2.50000000E+06 1.00000000E+00
  1 16 16 4.92122955E+01 2.50000000E+06 1.00000000E+00
  1 16 17 4.94372730E+01 2.50000000E+06 1.00000000E+00
  1 16 18 4.95556984E+01 2.50000000E+06 1.00000000E+00
  1 16 19 4.95394831E+01 2.50000000E+06 1.00000000E+00
  1 16 20 4.94144783E+01 2.50000000E+06 1.00000000E+00
  1 16 21 4.92245836E+01 2.50000000E+06 1.00000000E+00
  1 16 22 4.90172338E+01 2.50000000E+06 1.00000000E+00
  1 16 23 4.88245697E+01 2.50000000E+06 1.00000000E+00
  1 16 24 4.86774483E+01 2.50000000E+06 1.00000000E+00
  1 17 1 7.24320431E+01 2.50000000E+06 1.00000000E+00
  1 17 2 7.22004814E+01 2.50000000E+06 1.00000000E+00
  1 17 3 7.16043758E+01 2.50000000E+06 1.00000000E+00
  1 17 4 7.06354561E+01 2.50000000E+06 1.00000000E+00
  1 17 5 6.93503742E+01 2.50000000E+06 1.00000000E+00
  1 17 6 6.77465019E+01 2.50000000E+06 1.00000000E+00
  1 17 7 6.58464947E+01 2.50000000E+06 1.00000000E+00
  1 17 8 6.36529684E+01 2.50000000E+06 1.00000000E+00
  1 17 9 6.12351427E+01 2.50000000E+06 1.00000000E+00
  1 17 10 5.85932865E+01 2.50000000E+06 1.00000000E+00
  1 17 11 5.57230396E+01 2.50000000E+06 1.00000000E+00
  1 17 12 5.26266356E+01 2.50000000E+06 1.00000000E+00
  1 17 17 4.62311058E+01 2.50000000E+06 1.00000000E+00
  1 17 18 4.63306608E+01 2.50000000E+06 1.00000000E+00
  1 17 19 4.62193079E+01 2.50000000E+06 1.00000000E+00
  1 17 20 4.60087175E+01 2.50000000E+06 1.00000000E+00
  1 17 21 4.57203121E+01 2.50000000E+06 1.00000000E+00
  1 17 22 4.54665747E+01 2.50000000E+06 1.00000000E+00
  1 17 23 4.52697029E+01 2.50000000E+06 1.00000000E+00
  1 17 24 4.51809301E+01 2.50000000E+06 1.00000000E+00
  1 18 1 7.01730156E+01 2.50000000E+06 1.00000000E+00
  1 18 2 7.02919483E+01 2.50000000E+06 1.00000000E+00
  1 18 3 6.99669685E+01 2.50000000E+06 1.00000000E+00
  1 18 4 6.92687969E+01 2.50000000E+06 1.00000000E+00
  1 18 5 6.82118626E+01 2.50000000E+06 1.00000000E+00
  1 18 6 6.68448410E+01 2.50000000E+06 1.00000000E+00
  1 18 7 6.51795826E+01 2.50000000E+06 1.00000000E+00
  1 18 8 6.32642450E+01 2.50000000E+06 1.00000000E+00
  1 18 9 6.10990419E+01 2.50000000E+06 1.00000000E+00
  1 18 10 5.87553949E+01 2.50000000E+06 1.00000000E+00
  1 18 11 5.62483625E+01 2.50000000E+06 1.00000000E+00
  1 18 12 5.36335297E+01 2.50000000E+06 1.00000000E+00
  1 18 13 5.10192976E+01 2.50000000E+06 1.00000000E+00
  1 18 14 4.86104832E+01 2.50000000E+06 1.00000000E+00
  1 18 15 4.64702263E+01 2.50000000E+06 1.00000000E+00
  1 18 19 4.24180622E+01 2.50000000E+06 1.00000000E+00
  1 18 20 4.21669683E+01 2.50000000E+06 1.00000000E+00
  1 18 21 4.16337585E+01 2.50000000E+06 1.00000000E+00
  1 18 22 4.13499203E+01 2.50000000E+06 1.00000000E+00
  1 18 23 4.10705318E+01 2.50000000E+06 1.00000000E+00
  1 18 24 4.10202732E+01 2.50000000E+06 1.00000000E+00
  1 19 1 6.80075569E+01 2.50000000E+06 1.00000000E+00
  1 19 2 6.84045372E+01 2.50000000E+06 1.00000000E+00
  1 19 3 6.83297920E+01 2.50000000E+06 1.00000000E+00
  1 19 4 6.78484459E+01 2.50000000E+06 1.00000000E+00
  1 19 5 6.70046520E+01 2.50000000E+06 1.00000000E+00
  1 19 6 6.58318920E+01 2.50000000E+06 1.00000000E+00
  1 19 7 6.43824196E+01 2.50000000E+06 1.00000000E+00
  1 19 8 6.26684189E+01 2.50000000E+06 1.00000000E+00
  1 19 9 6.07646332E+01 2.50000000E+06 1.00000000E+00
  1 19 10 5.86673326E+01 2.50000000E+06 1.00000000E+00
  1 19 11 5.64476624E+01 2.50000000E+06 1.00000000E+00
  1 19 12 5.41451387E+01 2.50000000E+06 1.00000000E+00
  1 19 13 5.18540668E+01 2.50000000E+06 1.00000000E+00
  1 19 14 4.96628618E+01 2.50000000E+06 1.00000000E+00
  1 19 15 4.75887032E+01 2.50000000E+06 1.00000000E+00
  1 19 16 4.55861750E+01 2.50000000E+06 1.00000000E+00
  1 19 17 4.36382637E+01 2.50000000E+06 1.00000000E+00
  1 20 2 6.66031246E+01 2.50000000E+06 1.00000000E+00
  1 20 3 6.67195625E+01 2.50000000E+06 1.00000000E+00
  1 20 4 6.64063606E+01 2.50000000E+06 1.00000000E+00
  1 20 5 6.57186699E+01 2.50000000E+06 1.00000000E+00
  1 20 6 6.47128983E+01 2.50000000E+06 1.00000000E+00
  1 20 7 6.34228287E+01 2.50000000E+06 1.00000000E+00
  1 20 8 6.18997860E+01 2.50000000E+06 1.00000000E+00
  1 20 9 6.01755333E+01 2.50000000E+06 1.00000000E+00
  1 20 10 5.82898035E+01 2.50000000E+06 1.00000000E+00
  1 20 11 5.62737226E+01 2.50000000E+06 1.00000000E+00
  1 20 12 5.42128963E+01 2.50000000E+06 1.00000000E+00
  1 20 13 5.21437597E+01 2.50000000E+06 1.00000000E+00
  1 20 14 5.01290665E+01 2.50000000E+06 1.00000000E+00
  1 20 15 4.81771250E+01 2.50000000E+06 1.00000000E+00
  1 20 16 4.62939119E+01 2.50000000E+06 1.00000000E+00
  1 20 17 4.44707479E+01 2.50000000E+06 1.00000000E+00
  1 20 18 4.27357693E+01 2.50000000E+06 1.00000000E+00
  1 20 19 4.10613337E+01 2.50000000E+06 1.00000000E+00
  1 20 20 3.94750509E+01 2.50000000E+06 1.00000000E+00
  1 20 21 3.78868484E+01 2.50000000E+06 1.00000000E+00
  1 20 22 3.63270760E+01 2.50000000E+06 1.00000000E+00
  1 20 23 3.47975788E+01 2.50000000E+06 1.00000000E+00
  1 21 3 6.51472435E+01 2.50000000E+06 1.00000000E+00
  1 21 4 6.49563084E+01 2.50000000E+06 1.00000000E+00
  1 21 5 6.43813400E+01 2.50000000E+06 1.00000000E+00
  1 21 6 6.34834719E+01 2.50000000E+06 1.00000000E+00
  1 21 7 6.23212919E+01 2.50000000E+06 1.00000000E+00
  1 21 8 6.09269085E+01 2.50000000E+06 1.00000000E+00
  1 21 9 5.93393078E+01 2.50000000E+06 1.00000000E+00
  1 21 10 5.76020308E+01 2.50000000E+06 1.00000000E+00
  1 21 11 5.57535696E+01 2.50000000E+06 1.00000000E+00
  1 21 12 5.38562832E+01 2.50000000E+06 1.00000000E+00
  1 21 13 5.19572430E+01 2.50000000E+06 1.00000000E+00
  1 21 14 5.00865526E+01 2.50000000E+06 1.00000000E+00
  1 21 15 4.82696428E+01 2.50000000E+06 1.00000000E+00
  1 21 16 4.64966650E+01 2.50000000E+06 1.00000000E+00
  1 21 17 4.47704716E+01 2.50000000E+06 1.00000000E+00
  1 21 18 4.30925436E+01 2.50000000E+06 1.00000000E+00
  1 21 19 4.14563303E+01 2.50000000E+06 1.00000000E+00
  1 21 20 3.98625994E+01 2.50000000E+06 1.00000000E+00
  1 21 21 3.82895832E+01 2.50000000E+06 1.00000000E+00
  1 21 22 3.67344084E+01 2.50000000E+06 1.00000000E+00
  1 21 23 3.51843929E+01 2.50000000E+06 1.00000000E+00
  1 21 24 3.35996895E+01 2.50000000E+06 1.00000000E+00
  1 22 1 6.54029522E+01 2.50000000E+06 1.00000000E+00
  1 22 3 6.36542816E+01 2.50000000E+06 1.00000000E+00
  1 22 4 6.34937344E+01 2.50000000E+06 1.00000000E+00
  1 22 5 6.29604559E+01 2.50000000E+06 1.00000000E+00
  1 22 6 6.21202335E+01 2.50000000E+06 1.00000000E+00
  1 22 7 6.10317307E+01 2.50000000E+06 1.00000000E+00
  1 22 8 5.97361164E+01 2.50000000E+06 1.00000000E+00
  1 22 9 5.82503586E+01 2.50000000E+06 1.00000000E+00
  1 22 10 5.66046829E+01 2.50000000E+06 1.00000000E+00
  1 22 11 5.48591442E+01 2.50000000E+06 1.00000000E+00
  1 22 12 5.30670280E+01 2.50000000E+06 1.00000000E+00
  1 22 13 5.12809048E+01 2.50000000E+06 1.00000000E+00
  1 22 14 4.95544748E+01 2.50000000E+06 1.00000000E+00
  1 22 15 4.78612328E+01 2.50000000E+06 1.00000000E+00
  1 22 16 4.62074251E+01 2.50000000E+06 1.00000000E+00
  1 22 17 4.45700607E+01 2.50000000E+06 1.00000000E+00
  1 22 18 4.29537010E+01 2.50000000E+06 1.00000000E+00
  1 22 19 4.13441687E+01 2.50000000E+06 1.00000000E+00
  1 22 20 3.97707291E+01 2.50000000E+06 1.00000000E+00
  1 22 21 3.82096891E+01 2.50000000E+06 1.00000000E+00
  1 22 22 3.66563253E+01 2.50000000E+06 1.00000000E+00
  1 22 23 3.51424055E+01 2.50000000E+06 1.00000000E+00
  1 22 24 3.36444683E+01 2.50000000E+06 1.00000000E+00
  1 23 1 6.55333519E+01 2.50000000E+06 1.00000000E+00
  1 23 4 6.20267859E+01 2.50000000E+06 1.00000000E+00
  1 23 5 6.14431572E+01 2.50000000E+06 1.00000000E+00
  1 23 6 6.06030531E+01 2.50000000E+06 1.00000000E+00
  1 23 7 5.95525932E+01 2.50000000E+06 1.00000000E+00
  1 23 8 5.83307590E+01 2.50000000E+06 1.00000000E+00
  1 23 9 5.69017239E+01 2.50000000E+06 1.00000000E+00
  1 23 10 5.52891369E+01 2.50000000E+06 1.00000000E+00
  1 23 11 5.35814676E+01 2.50000000E+06 1.00000000E+00
  1 23 12 5.18176184E+01 2.50000000E+06 1.00000000E+00
  1 23 13 5.01333847E+01 2.50000000E+06 1.00000000E+00
  1 23 14 4.85272636E+01 2.50000000E+06 1.00000000E+00
  1 23 15 4.69807186E+01 2.50000000E+06 1.00000000E+00
  1 23 16 4.54434433E+01 2.50000000E+06 1.00000000E+00
  1 23 17 4.39111691E+01 2.50000000E+06 1.00000000E+00
  1 23 18 4.23523970E+01 2.50000000E+06 1.00000000E+00
  1 23 19 4.07285061E+01 2.50000000E+06 1.00000000E+00
  1 23 20 3.91961632E+01 2.50000000E+06 1.00000000E+00
  1 23 21 3.76719999E+01 2.50000000E+06 1.00000000E+00
  1 24 1 6.52535572E+01 2.50000000E+06 1.00000000E+00
  1 24 6 5.88959064E+01 2.50000000E+06 1.00000000E+00
  1 24 7 5.77751875E+01 2.50000000E+06 1.00000000E+00
  1 24 8 5.67282028E+01 2.50000000E+06 1.00000000E+00
  1 24 9 5.53269415E+01 2.50000000E+06 1.00000000E+00
  1 24 10 5.36079473E+01 2.50000000E+06 1.00000000E+00
  1 24 23 3.73396482E+01 2.50000000E+06 1.00000000E+00
  1 25 3 6.29609261E+01 2.50000000E+06 1.00000000E+00
  1 25 4 6.16697359E+01 2.50000000E+06 1.00000000E+00
  1 25 12 5.00105524E+01 2.50000000E+06 1.00000000E+00
  1 25 13 4.86708908E+01 2.50000000E+06 1.00000000E+00
  1 25 14 4.72152357E+01 2.50000000E+06 1.00000000E+00
  1 25 15 4.56718349E+01 2.50000000E+06 1.00000000E+00
  1 25 18 4.41698608E+01 2.50000000E+06 1.00000000E+00
  1 25 19 4.40280008E+01 2.50000000E+06 1.00000000E+00
  1 25 20 4.37605352E+01 2.50000000E+06 1.00000000E+00
  1 25 21 4.31972008E+01 2.50000000E+06 1.00000000E+00
  1 25 22 4.25577288E+01 2.50000000E+06 1.00000000E+00
  1 25 23 4.17451553E+01 2.50000000E+06 1.00000000E+00
  1 25 24 4.05186443E+01 2.50000000E+06 1.00000000E+00
  1 26 1 6.67670517E+01 2.50000000E+06 1.00000000E+00
  1 26 2 6.54612617E+01 2.50000000E+06 1.00000000E+00
  1 26 3 6.40976963E+01 2.50000000E+06 1.00000000E+00
  1 26 4 6.26394424E+01 2.50000000E+06 1.00000000E+00
  1 26 5 6.10802774E+01 2.50000000E+06 1.00000000E+00
  1 26 6 5.94727697E+01 2.50000000E+06 1.00000000E+00
  1 26 7 5.78405943E+01 2.50000000E+06 1.00000000E+00
  1 26 8 5.62741070E+01 2.50000000E+06 1.00000000E+00
  1 26 9 5.47680569E+01 2.50000000E+06 1.00000000E+00
  1 26 10 5.32963104E+01 2.50000000E+06 1.00000000E+00
  1 26 11 5.18619785E+01 2.50000000E+06 1.00000000E+00
  1 26 12 5.03868017E+01 2.50000000E+06 1.00000000E+00
  1 26 13 4.88805609E+01 2.50000000E+06 1.00000000E+00
  1 26 14 4.72790098E+01 2.50000000E+06 1.00000000E+00
  1 26 17 4.69165888E+01 2.50000000E+06 1.00000000E+00
  1 26 18 4.75088596E+01 2.50000000E+06 1.00000000E+00
  1 26 19 4.76869116E+01 2.50000000E+06 1.00000000E+00
  1 26 20 4.75928144E+01 2.50000000E+06 1.00000000E+00
  1 26 21 4.72461939E+01 2.50000000E+06 1.00000000E+00
  1 26 22 4.67184820E+01 2.50000000E+06 1.00000000E+00
  1 26 23 4.59881201E+01 2.50000000E+06 1.00000000E+00
  1 26 24 4.50541945E+01 2.50000000E+06 1.00000000E+00
  1 27 1 6.78641605E+01 2.50000000E+06 1.00000000E+00
  1 27 2 6.64052563E+01 2.50000000E+06 1.00000000E+00
  1 27 3 6.48932610E+01 2.50000000E+06 1.00000000E+00
  1 27 4 6.33289690E+01 2.50000000E+06 1.00000000E+00
  1 27 5 6.17111607E+01 2.50000000E+06 1.00000000E+00
  1 27 6 6.00597277E+01 2.50000000E+06 1.00000000E+00
  1 27 7 5.84054565E+01 2.50000000E+06 1.00000000E+00
  1 27 8 5.67804661E+01 2.50000000E+06 1.00000000E+00
  1 27 9 5.51764469E+01 2.50000000E+06 1.00000000E+00
  1 27 10 5.35839434E+01 2.50000000E+06 1.00000000E+00
  1 27 11 5.19839029E+01 2.50000000E+06 1.00000000E+00
  1 27 12 5.03678961E+01 2.50000000E+06 1.00000000E+00
  1 27 13 4.87211857E+01 2.50000000E+06 1.00000000E+00
  1 27 16 4.85808010E+01 2.50000000E+06 1.00000000E+00
  1 27 17 4.99953079E+01 2.50000000E+06 1.00000000E+00
  1 27 18 5.07639246E+01 2.50000000E+06 1.00000000E+00
  1 27 19 5.11120462E+01 2.50000000E+06 1.00000000E+00
  1 27 20 5.11513081E+01 2.50000000E+06 1.00000000E+00
  1 27 21 5.09464693E+01 2.50000000E+06 1.00000000E+00
  1 27 22 5.05332212E+01 2.50000000E+06 1.00000000E+00
  1 27 23 4.99404430E+01 2.50000000E+06 1.00000000E+00
  1 27 24 4.91745815E+01 2.50000000E+06 1.00000000E+00
  1 28 1 6.86221218E+01 2.50000000E+06 1.00000000E+00
  1 28 2 6.70083427E+01 2.50000000E+06 1.00000000E+00
  1 28 3 6.53683262E+01 2.50000000E+06 1.00000000E+00
  1 28 4 6.36805058E+01 2.50000000E+06 1.00000000E+00
  1 28 5 6.19669638E+01 2.50000000E+06 1.00000000E+00
  1 28 6 6.02432671E+01 2.50000000E+06 1.00000000E+00
  1 28 7 5.85308943E+01 2.50000000E+06 1.00000000E+00
  1 28 8 5.68377466E+01 2.50000000E+06 1.00000000E+00
  1 28 9 5.51534595E+01 2.50000000E+06 1.00000000E+00
  1 28 10 5.34531536E+01 2.50000000E+06 1.00000000E+00
  1 28 11 5.17136269E+01 2.50000000E+06 1.00000000E+00
  1 28 15 5.03072386E+01 2.50000000E+06 1.00000000E+00
  1 28 16 5.19834242E+01 2.50000000E+06 1.00000000E+00
  1 28 17 5.31995649E+01 2.50000000E+06 1.00000000E+00
  1 28 18 5.39519691E+01 2.50000000E+06 1.00000000E+00
  1 28 19 5.43520107E+01 2.50000000E+06 1.00000000E+00
  1 28 20 5.44686213E+01 2.50000000E+06 1.00000000E+00
  1 28 21 5.43461189E+01 2.50000000E+06 1.00000000E+00
  1 28 22 5.40343809E+01 2.50000000E+06 1.00000000E+00
  1 28 23 5.35385160E+01 2.50000000E+06 1.00000000E+00
  1 28 24 5.28988371E+01 2.50000000E+06 1.00000000E+00
  1 29 1 6.90335350E+01 2.50000000E+06 1.00000000E+00
  1 29 2 6.72709007E+01 2.50000000E+06 1.00000000E+00
  1 29 3 6.54761543E+01 2.50000000E+06 1.00000000E+00
  1 29 4 6.36563787E+01 2.50000000E+06 1.00000000E+00
  1 29 5 6.18344736E+01 2.50000000E+06 1.00000000E+00
  1 29 6 6.00176048E+01 2.50000000E+06 1.00000000E+00
  1 29 7 5.82184048E+01 2.50000000E+06 1.00000000E+00
  1 29 8 5.64719439E+01 2.50000000E+06 1.00000000E+00
  1 29 9 5.47191525E+01 2.50000000E+06 1.00000000E+00
  1 29 13 5.18766642E+01 2.50000000E+06 1.00000000E+00
  1 29 14 5.29753284E+01 2.50000000E+06 1.00000000E+00
  1 29 15 5.42341700E+01 2.50000000E+06 1.00000000E+00
  1 29 16 5.54173527E+01 2.50000000E+06 1.00000000E+00
  1 29 17 5.63674698E+01 2.50000000E+06 1.00000000E+00
  1 29 18 5.70244656E+01 2.50000000E+06 1.00000000E+00
  1 29 19 5.74048681E+01 2.50000000E+06 1.00000000E+00
  1 29 20 5.75474234E+01 2.50000000E+06 1.00000000E+00
  1 29 21 5.74812660E+01 2.50000000E+06 1.00000000E+00
  1 29 22 5.72275763E+01 2.50000000E+06 1.00000000E+00
  1 29 23 5.68164091E+01 2.50000000E+06 1.00000000E+00
  1 29 24 5.62607470E+01 2.50000000E+06 1.00000000E+00
  1 30 1 6.91293392E+01 2.50000000E+06 1.00000000E+00
  1 30 2 6.71659355E+01 2.50000000E+06 1.00000000E+00
  1 30 3 6.52124386E+01 2.50000000E+06 1.00000000E+00
  1 30 4 6.32380857E+01 2.50000000E+06 1.00000000E+00
  1 30 5 6.12916889E+01 2.50000000E+06 1.00000000E+00
  1 30 6 5.93457689E+01 2.50000000E+06 1.00000000E+00
  1 30 7 5.74357109E+01 2.50000000E+06 1.00000000E+00
  1 30 11 5.37701998E+01 2.50000000E+06 1.00000000E+00
  1 30 12 5.47881403E+01 2.50000000E+06 1.00000000E+00
  1 30 13 5.58034611E+01 2.50000000E+06 1.00000000E+00
  1 30 14 5.67729301E+01 2.50000000E+06 1.00000000E+00
  1 30 15 5.77342815E+01 2.50000000E+06 1.00000000E+00
  1 30 16 5.86249428E+01 2.50000000E+06 1.00000000E+00
  1 30 17 5.93706789E+01 2.50000000E+06 1.00000000E+00
  1 30 18 5.99152250E+01 2.50000000E+06 1.00000000E+00
  1 30 19 6.02494373E+01 2.50000000E+06 1.00000000E+00
  1 30 20 6.03873692E+01 2.50000000E+06 1.00000000E+00
  1 30 21 6.03425188E+01 2.50000000E+06 1.00000000E+00
  1 30 22 6.01354885E+01 2.50000000E+06 1.00000000E+00
  1 30 23 5.97769909E+01 2.50000000E+06 1.00000000E+00
  1 30 24 5.92842607E+01 2.50000000E+06 1.00000000E+00
  1 31 1 6.88545284E+01 2.50000000E+06 1.00000000E+00
  1 31 2 6.66820850E+01 2.50000000E+06 1.00000000E+00