# File generated by Flopy version 3.10.0.dev3 on 06/16/2025 at 08:45:42.
BEGIN options
  auxiliary  ANGLDEGX  CDIST
  NEWTON
END options

BEGIN dimensions
  NEXG  175
END dimensions

BEGIN exchangedata
  1 3 25  1 3 1  1    1250.00000000    1250.00000000    2500.00000000       0.00000000    2500.00000000
  2 3 25  2 3 1  1    1250.00000000    1250.00000000    2500.00000000       0.00000000    2500.00000000
  3 3 25  3 3 1  1    1250.00000000    1250.00000000    2500.00000000       0.00000000    2500.00000000
  4 3 25  4 3 1  1    1250.00000000    1250.00000000    2500.00000000       0.00000000    2500.00000000
  5 3 25  5 3 1  1    1250.00000000    1250.00000000    2500.00000000       0.00000000    2500.00000000
  1 4 25  1 4 1  1    1250.00000000    1250.00000000    2500.00000000       0.00000000    2500.00000000
  2 4 25  2 4 1  1    1250.00000000    1250.00000000    2500.00000000       0.00000000    2500.00000000
  3 4 25  3 4 1  1    1250.00000000    1250.00000000    2500.00000000       0.00000000    2500.00000000
  4 4 25  4 4 1  1    1250.00000000    1250.00000000    2500.00000000       0.00000000    2500.00000000
  5 4 25  5 4 1  1    1250.00000000    1250.00000000    2500.00000000       0.00000000    2500.00000000
  1 5 25  1 5 1  1    1250.00000000    1250.00000000    2500.00000000       0.00000000    2500.00000000
  2 5 25  2 5 1  1    1250.00000000    1250.00000000    2500.00000000       0.00000000    2500.00000000
  3 5 25  3 5 1  1    1250.00000000    1250.00000000    2500.00000000       0.00000000    2500.00000000
  4 5 25  4 5 1  1    1250.00000000    1250.00000000    2500.00000000       0.00000000    2500.00000000
  5 5 25  5 5 1  1    1250.00000000    1250.00000000    2500.00000000       0.00000000    2500.00000000
  1 6 25  1 6 1  1    1250.00000000    1250.00000000    2500.00000000       0.00000000    2500.00000000
  2 6 25  2 6 1  1    1250.00000000    1250.00000000    2500.00000000       0.00000000    2500.00000000
  3 6 25  3 6 1  1    1250.00000000    1250.00000000    2500.00000000       0.00000000    2500.00000000
  4 6 25  4 6 1  1    1250.00000000    1250.00000000    2500.00000000       0.00000000    2500.00000000
  5 6 25  5 6 1  1    1250.00000000    1250.00000000    2500.00000000       0.00000000    2500.00000000
  1 7 25  1 7 1  1    1250.00000000    1250.00000000    2500.00000000       0.00000000    2500.00000000
  2 7 25  2 7 1  1    1250.00000000    1250.00000000    2500.00000000       0.00000000    2500.00000000
  3 7 25  3 7 1  1    1250.00000000    1250.00000000    2500.00000000       0.00000000    2500.00000000
  4 7 25  4 7 1  1    1250.00000000    1250.00000000    2500.00000000       0.00000000    2500.00000000
  5 7 25  5 7 1  1    1250.00000000    1250.00000000    2500.00000000       0.00000000    2500.00000000
  1 8 25  1 8 1  1    1250.00000000    1250.00000000    2500.00000000       0.00000000    2500.00000000
  2 8 25  2 8 1  1    1250.00000000    1250.00000000    2500.00000000       0.00000000    2500.00000000
  3 8 25  3 8 1  1    1250.00000000    1250.00000000    2500.00000000       0.00000000    2500.00000000
  4 8 25  4 8 1  1    1250.00000000    1250.00000000    2500.00000000       0.00000000    2500.00000000
  5 8 25  5 8 1  1    1250.00000000    1250.00000000    2500.00000000       0.00000000    2500.00000000
  1 9 25  1 9 1  1    1250.00000000    1250.00000000    2500.00000000       0.00000000    2500.00000000
  2 9 25  2 9 1  1    1250.00000000    1250.00000000    2500.00000000       0.00000000    2500.00000000
  3 9 25  3 9 1  1    1250.00000000    1250.00000000    2500.00000000       0.00000000    2500.00000000
  4 9 25  4 9 1  1    1250.00000000    1250.00000000    2500.00000000       0.00000000    2500.00000000
  5 9 25  5 9 1  1    1250.00000000    1250.00000000    2500.00000000       0.00000000    2500.00000000
  1 10 25  1 10 1  1    1250.00000000    1250.00000000    2500.00000000       0.00000000    2500.00000000
  2 10 25  2 10 1  1    1250.00000000    1250.00000000    2500.00000000       0.00000000    2500.00000000
  3 10 25  3 10 1  1    1250.00000000    1250.00000000    2500.00000000       0.00000000    2500.00000000
  4 10 25  4 10 1  1    1250.00000000    1250.00000000    2500.00000000       0.00000000    2500.00000000
  5 10 25  5 10 1  1    1250.00000000    1250.00000000    2500.00000000       0.00000000    2500.00000000
  1 11 25  1 11 1  1    1250.00000000    1250.00000000    2500.00000000       0.00000000    2500.00000000
  2 11 25  2 11 1  1    1250.00000000    1250.00000000    2500.00000000       0.00000000    2500.00000000
  3 11 25  3 11 1  1    1250.00000000    1250.00000000    2500.00000000       0.00000000    2500.00000000
  4 11 25  4 11 1  1    1250.00000000    1250.00000000    2500.00000000       0.00000000    2500.00000000
  5 11 25  5 11 1  1    1250.00000000    1250.00000000    2500.00000000       0.00000000    2500.00000000
  1 12 25  1 12 1  1    1250.00000000    1250.00000000    2500.00000000       0.00000000    2500.00000000
  2 12 25  2 12 1  1    1250.00000000    1250.00000000    2500.00000000       0.00000000    2500.00000000
  3 12 25  3 12 1  1    1250.00000000    1250.00000000    2500.00000000       0.00000000    2500.00000000
  4 12 25  4 12 1  1    1250.00000000    1250.00000000    2500.00000000       0.00000000    2500.00000000
  5 12 25  5 12 1  1    1250.00000000    1250.00000000    2500.00000000       0.00000000    2500.00000000
  1 13 25  1 13 1  1    1250.00000000    1250.00000000    2500.00000000       0.00000000    2500.00000000
  2 13 25  2 13 1  1    1250.00000000    1250.00000000    2500.00000000       0.00000000    2500.00000000
  3 13 25  3 13 1  1    1250.00000000    1250.00000000    2500.00000000       0.00000000    2500.00000000
  4 13 25  4 13 1  1    1250.00000000    1250.00000000    2500.00000000       0.00000000    2500.00000000
  5 13 25  5 13 1  1    1250.00000000    1250.00000000    2500.00000000       0.00000000    2500.00000000
  1 14 25  1 14 1  1    1250.00000000    1250.00000000    2500.00000000       0.00000000    2500.00000000
  2 14 25  2 14 1  1    1250.00000000    1250.00000000    2500.00000000       0.00000000    2500.00000000
  3 14 25  3 14 1  1    1250.00000000    1250.00000000    2500.00000000       0.00000000    2500.00000000
  4 14 25  4 14 1  1    1250.00000000    1250.00000000    2500.00000000       0.00000000    2500.00000000
  5 14 25  5 14 1  1    1250.00000000    1250.00000000    2500.00000000       0.00000000    2500.00000000
  1 15 25  1 15 1  1    1250.00000000    1250.00000000    2500.00000000       0.00000000    2500.00000000
  2 15 25  2 15 1  1    1250.00000000    1250.00000000    2500.00000000       0.00000000    2500.00000000
  3 15 25  3 15 1  1    1250.00000000    1250.00000000    2500.00000000       0.00000000    2500.00000000
  4 15 25  4 15 1  1    1250.00000000    1250.00000000    2500.00000000       0.00000000    2500.00000000
  5 15 25  5 15 1  1    1250.00000000    1250.00000000    2500.00000000       0.00000000    2500.00000000
  1 16 25  1 16 1  1    1250.00000000    1250.00000000    2500.00000000       0.00000000    2500.00000000
  2 16 25  2 16 1  1    1250.00000000    1250.00000000    2500.00000000       0.00000000    2500.00000000
  3 16 25  3 16 1  1    1250.00000000    1250.00000000    2500.00000000       0.00000000    2500.00000000
  4 16 25  4 16 1  1    1250.00000000    1250.00000000    2500.00000000       0.00000000    2500.00000000
  5 16 25  5 16 1  1    1250.00000000    1250.00000000    2500.00000000       0.00000000    2500.00000000
  1 17 25  1 17 1  1    1250.00000000    1250.00000000    2500.00000000       0.00000000    2500.00000000
  2 17 25  2 17 1  1    1250.00000000    1250.00000000    2500.00000000       0.00000000    2500.00000000
  3 17 25  3 17 1  1    1250.00000000    1250.00000000    2500.00000000       0.00000000    2500.00000000
  4 17 25  4 17 1  1    1250.00000000    1250.00000000    2500.00000000       0.00000000    2500.00000000
  5 17 25  5 17 1  1    1250.00000000    1250.00000000    2500.00000000       0.00000000    2500.00000000
  1 18 25  1 18 1  1    1250.00000000    1250.00000000    2500.00000000       0.00000000    2500.00000000
  2 18 25  2 18 1  1    1250.00000000    1250.00000000    2500.00000000       0.00000000    2500.00000000
  3 18 25  3 18 1  1    1250.00000000    1250.00000000    2500.00000000       0.00000000    2500.00000000
  4 18 25  4 18 1  1    1250.00000000    1250.00000000    2500.00000000       0.00000000    2500.00000000
  5 18 25  5 18 1  1    1250.00000000    1250.00000000    2500.00000000       0.00000000    2500.00000000
  1 19 25  1 19 1  1    1250.00000000    1250.00000000    2500.00000000       0.00000000    2500.00000000
  2 19 25  2 19 1  1    1250.00000000    1250.00000000    2500.00000000       0.00000000    2500.00000000
  3 19 25  3 19 1  1    1250.00000000    1250.00000000    2500.00000000       0.00000000    2500.00000000
  4 19 25  4 19 1  1    1250.00000000    1250.00000000    2500.00000000       0.00000000    2500.00000000
  5 19 25  5 19 1  1    1250.00000000    1250.00000000    2500.00000000       0.00000000    2500.00000000
  1 20 25  1 20 1  1    1250.00000000    1250.00000000    2500.00000000       0.00000000    2500.00000000
  2 20 25  2 20 1  1    1250.00000000    1250.00000000    2500.00000000       0.00000000    2500.00000000
  3 20 25  3 20 1  1    1250.00000000    1250.00000000    2500.00000000       0.00000000    2500.00000000
  4 20 25  4 20 1  1    1250.00000000    1250.00000000    2500.00000000       0.00000000    2500.00000000
  5 20 25  5 20 1  1    1250.00000000    1250.00000000    2500.00000000       0.00000000    2500.00000000
  1 21 25  1 21 1  1    1250.00000000    1250.00000000    2500.00000000       0.00000000    2500.00000000
  2 21 25  2 21 1  1    1250.00000000    1250.00000000    2500.00000000       0.00000000    2500.00000000
  3 21 25  3 21 1  1    1250.00000000    1250.00000000    2500.00000000       0.00000000    2500.00000000
  4 21 25  4 21 1  1    1250.00000000    1250.00000000    2500.00000000       0.00000000    2500.00000000
  5 21 25  5 21 1  1    1250.00000000    1250.00000000    2500.00000000       0.00000000    2500.00000000
  1 22 25  1 22 1  1    1250.00000000    1250.00000000    2500.00000000       0.00000000    2500.00000000
  2 22 25  2 22 1  1    1250.00000000    1250.00000000    2500.00000000       0.00000000    2500.00000000
  3 22 25  3 22 1  1    1250.00000000    1250.00000000    2500.00000000       0.00000000    2500.00000000
  4 22 25  4 22 1  1    1250.00000000    1250.00000000    2500.00000000       0.00000000    2500.00000000
  5 22 25  5 22 1  1    1250.00000000    1250.00000000    2500.00000000       0.00000000    2500.00000000
  1 23 25  1 23 1  1    1250.00000000    1250.00000000    2500.00000000       0.00000000    2500.00000000
  2 23 25  2 23 1  1    1250.00000000    1250.00000000    2500.00000000       0.00000000    2500.00000000
  3 23 25  3 23 1  1    1250.00000000    1250.00000000    2500.00000000       0.00000000    2500.00000000
  4 23 25  4 23 1  1    1250.00000000    1250.00000000    2500.00000000       0.00000000    2500.00000000
  5 23 25  5 23 1  1    1250.00000000    1250.00000000    2500.00000000       0.00000000    2500.00000000
  1 24 25  1 24 1  1    1250.00000000    1250.00000000    2500.00000000       0.00000000    2500.00000000
  2 24 25  2 24 1  1    1250.00000000    1250.00000000    2500.00000000       0.00000000    2500.00000000
  3 24 25  3 24 1  1    1250.00000000    1250.00000000    2500.00000000       0.00000000    2500.00000000
  4 24 25  4 24 1  1    1250.00000000    1250.00000000    2500.00000000       0.00000000    2500.00000000
  5 24 25  5 24 1  1    1250.00000000    1250.00000000    2500.00000000       0.00000000    2500.00000000
  1 25 25  1 25 1  1    1250.00000000    1250.00000000    2500.00000000       0.00000000    2500.00000000
  2 25 25  2 25 1  1    1250.00000000    1250.00000000    2500.00000000       0.00000000    2500.00000000
  3 25 25  3 25 1  1    1250.00000000    1250.00000000    2500.00000000       0.00000000    2500.00000000
  4 25 25  4 25 1  1    1250.00000000    1250.00000000    2500.00000000       0.00000000    2500.00000000
  5 25 25  5 25 1  1    1250.00000000    1250.00000000    2500.00000000       0.00000000    2500.00000000
  1 26 25  1 26 1  1    1250.00000000    1250.00000000    2500.00000000       0.00000000    2500.00000000
  2 26 25  2 26 1  1    1250.00000000    1250.00000000    2500.00000000       0.00000000    2500.00000000
  3 26 25  3 26 1  1    1250.00000000    1250.00000000    2500.00000000       0.00000000    2500.00000000
  4 26 25  4 26 1  1    1250.00000000    1250.00000000    2500.00000000       0.00000000    2500.00000000
  5 26 25  5 26 1  1    1250.00000000    1250.00000000    2500.00000000       0.00000000    2500.00000000
  1 27 25  1 27 1  1    1250.00000000    1250.00000000    2500.00000000       0.00000000    2500.00000000
  2 27 25  2 27 1  1    1250.00000000    1250.00000000    2500.00000000       0.00000000    2500.00000000
  3 27 25  3 27 1  1    1250.00000000    1250.00000000    2500.00000000       0.00000000    2500.00000000
  4 27 25  4 27 1  1    1250.00000000    1250.00000000    2500.00000000       0.00000000    2500.00000000
  5 27 25  5 27 1  1    1250.00000000    1250.00000000    2500.00000000       0.00000000    2500.00000000
  1 28 25  1 28 1  1    1250.00000000    1250.00000000    2500.00000000       0.00000000    2500.00000000
  2 28 25  2 28 1  1    1250.00000000    1250.00000000    2500.00000000       0.00000000    2500.00000000
  3 28 25  3 28 1  1    1250.00000000    1250.00000000    2500.00000000       0.00000000    2500.00000000
  4 28 25  4 28 1  1    1250.00000000    1250.00000000    2500.00000000       0.00000000    2500.00000000
  5 28 25  5 28 1  1    1250.00000000    1250.00000000    2500.00000000       0.00000000    2500.00000000
  1 29 25  1 29 1  1    1250.00000000    1250.00000000    2500.00000000       0.00000000    2500.00000000
  2 29 25  2 29 1  1    1250.00000000    1250.00000000    2500.00000000       0.00000000    2500.00000000
  3 29 25  3 29 1  1    1250.00000000    1250.00000000    2500.00000000       0.00000000    2500.00000000
  4 29 25  4 29 1  1    1250.00000000    1250.00000000    2500.00000000       0.00000000    2500.00000000
  5 29 25  5 29 1  1    1250.00000000    1250.00000000    2500.00000000       0.00000000    2500.00000000
  1 30 25  1 30 1  1    1250.00000000    1250.00000000    2500.00000000       0.00000000    2500.00000000
  2 30 25  2 30 1  1    1250.00000000    1250.00000000    2500.00000000       0.00000000    2500.00000000
  3 30 25  3 30 1  1    1250.00000000    1250.00000000    2500.00000000       0.00000000    2500.00000000
  4 30 25  4 30 1  1    1250.00000000    1250.00000000    2500.00000000       0.00000000    2500.00000000
  5 30 25  5 30 1  1    1250.00000000    1250.00000000    2500.00000000       0.00000000    2500.00000000
  1 31 25  1 31 1  1    1250.00000000    1250.00000000    2500.00000000       0.00000000    2500.00000000
  2 31 25  2 31 1  1    1250.00000000    1250.00000000    2500.00000000       0.00000000    2500.00000000
  3 31 25  3 31 1  1    1250.00000000    1250.00000000    2500.00000000       0.00000000    2500.00000000
  4 31 25  4 31 1  1    1250.00000000    1250.00000000    2500.00000000       0.00000000    2500.00000000
  5 31 25  5 31 1  1    1250.00000000    1250.00000000    2500.00000000       0.00000000    2500.00000000
  1 32 25  1 32 1  1    1250.00000000    1250.00000000    2500.00000000       0.00000000    2500.00000000
  2 32 25  2 32 1  1    1250.00000000    1250.00000000    2500.00000000       0.00000000    2500.00000000
  3 32 25  3 32 1  1    1250.00000000    1250.00000000    2500.00000000       0.00000000    2500.00000000
  4 32 25  4 32 1  1    1250.00000000    1250.00000000    2500.00000000       0.00000000    2500.00000000
  5 32 25  5 32 1  1    1250.00000000    1250.00000000    2500.00000000       0.00000000    2500.00000000
  1 33 25  1 33 1  1    1250.00000000    1250.00000000    2500.00000000       0.00000000    2500.00000000
  2 33 25  2 33 1  1    1250.00000000    1250.00000000    2500.00000000       0.00000000    2500.00000000
  3 33 25  3 33 1  1    1250.00000000    1250.00000000    2500.00000000       0.00000000    2500.00000000
  4 33 25  4 33 1  1    1250.00000000    1250.00000000    2500.00000000       0.00000000    2500.00000000
  5 33 25  5 33 1  1    1250.00000000    1250.00000000    2500.00000000       0.00000000    2500.00000000
  1 34 25  1 34 1  1    1250.00000000    1250.00000000    2500.00000000       0.00000000    2500.00000000
  2 34 25  2 34 1  1    1250.00000000    1250.00000000    2500.00000000       0.00000000    2500.00000000
  3 34 25  3 34 1  1    1250.00000000    1250.00000000    2500.00000000       0.00000000    2500.00000000
  4 34 25  4 34 1  1    1250.00000000    1250.00000000    2500.00000000       0.00000000    2500.00000000
  5 34 25  5 34 1  1    1250.00000000    1250.00000000    2500.00000000       0.00000000    2500.00000000
  1 35 25  1 35 1  1    1250.00000000    1250.00000000    2500.00000000       0.00000000    2500.00000000
  2 35 25  2 35 1  1    1250.00000000    1250.00000000    2500.00000000       0.00000000    2500.00000000
  3 35 25  3 35 1  1    1250.00000000    1250.00000000    2500.00000000       0.00000000    2500.00000000
  4 35 25  4 35 1  1    1250.00000000    1250.00000000    2500.00000000       0.00000000    2500.00000000
  5 35 25  5 35 1  1    1250.00000000    1250.00000000    2500.00000000       0.00000000    2500.00000000
  1 36 25  1 36 1  1    1250.00000000    1250.00000000    2500.00000000       0.00000000    2500.00000000
  2 36 25  2 36 1  1    1250.00000000    1250.00000000    2500.00000000       0.00000000    2500.00000000
  3 36 25  3 36 1  1    1250.00000000    1250.00000000    2500.00000000       0.00000000    2500.00000000
  4 36 25  4 36 1  1    1250.00000000    1250.00000000    2500.00000000       0.00000000    2500.00000000
  5 36 25  5 36 1  1    1250.00000000    1250.00000000    2500.00000000       0.00000000    2500.00000000
  1 37 25  1 37 1  1    1250.00000000    1250.00000000    2500.00000000       0.00000000    2500.00000000
  2 37 25  2 37 1  1    1250.00000000    1250.00000000    2500.00000000       0.00000000    2500.00000000
  3 37 25  3 37 1  1    1250.00000000    1250.00000000    2500.00000000       0.00000000    2500.00000000
  4 37 25  4 37 1  1    1250.00000000    1250.00000000    2500.00000000       0.00000000    2500.00000000
  5 37 25  5 37 1  1    1250.00000000    1250.00000000    2500.00000000       0.00000000    2500.00000000
END exchangedata

