# LPF package for MODFLOW-2005 generated by Flopy 3.9.1
         0    -1E+30         0  
         0
         0
   1.000000E+00
         0
         0
INTERNAL               1  (40E15.6) -1 #hk layer 1                    
   5.479271E-04   5.476846E-04   5.475302E-04   5.472878E-04   5.473429E-04   5.472437E-04   5.470894E-04   5.467918E-04   5.467697E-04   5.465272E-04   5.465162E-04   5.463950E-04   5.462737E-04   5.461745E-04   5.460863E-04   5.460092E-04   5.459430E-04   5.458989E-04   5.458769E-04   5.458769E-04   5.458879E-04   5.459320E-04   5.459982E-04   5.460863E-04   5.461965E-04   5.463288E-04   5.464941E-04   5.466815E-04   5.468910E-04   5.471224E-04   5.472658E-04   5.475082E-04   5.478830E-04   5.481585E-04   5.485664E-04   5.487758E-04   5.493379E-04   5.499222E-04   5.503740E-04   5.507268E-04
   5.524794E-04   5.523360E-04   5.521817E-04   5.520605E-04   5.518291E-04   5.515534E-04   5.513551E-04   5.510575E-04   5.508370E-04   5.507819E-04   5.506937E-04   5.506055E-04   5.505284E-04   5.504843E-04   5.504733E-04   5.504843E-04   5.505173E-04   5.505945E-04   5.506937E-04   5.508150E-04   5.509693E-04   5.511456E-04   5.513551E-04   5.515866E-04   5.518401E-04   5.521156E-04   5.524022E-04   5.527108E-04   5.530305E-04   5.533722E-04   5.537579E-04   5.540997E-04   5.543862E-04   5.546839E-04   5.550145E-04   5.554113E-04   5.558081E-04   5.560727E-04   5.563703E-04   5.567561E-04
   5.402995E-04   5.408396E-04   5.412475E-04   5.414900E-04   5.419529E-04   5.426143E-04   5.428788E-04   5.432205E-04   5.435842E-04   5.443888E-04   5.446755E-04   5.451604E-04   5.456564E-04   5.461635E-04   5.466705E-04   5.471886E-04   5.477066E-04   5.482137E-04   5.487207E-04   5.492278E-04   5.497237E-04   5.502087E-04   5.506827E-04   5.511346E-04   5.515755E-04   5.519944E-04   5.524022E-04   5.527770E-04   5.531186E-04   5.534383E-04   5.537249E-04   5.541327E-04   5.541217E-04   5.543752E-04   5.543973E-04   5.545185E-04   5.545075E-04   5.544744E-04   5.544524E-04   5.544414E-04
   5.312831E-04   5.316248E-04   5.320327E-04   5.323854E-04   5.327381E-04   5.332782E-04   5.335979E-04   5.339506E-04   5.344576E-04   5.348985E-04   5.354055E-04   5.358465E-04   5.362984E-04   5.367392E-04   5.371912E-04   5.376321E-04   5.380620E-04   5.384918E-04   5.389217E-04   5.393405E-04   5.397374E-04   5.401342E-04   5.405089E-04   5.408727E-04   5.412254E-04   5.415450E-04   5.418537E-04   5.421513E-04   5.424158E-04   5.426583E-04   5.428678E-04   5.429669E-04   5.433858E-04   5.435181E-04   5.435842E-04   5.436614E-04   5.435181E-04   5.435512E-04   5.433858E-04   5.434079E-04
   5.390871E-04   5.385690E-04   5.380510E-04   5.375880E-04   5.371140E-04   5.366511E-04   5.361551E-04   5.358355E-04   5.353945E-04   5.352402E-04   5.346450E-04   5.343254E-04   5.340498E-04   5.337963E-04   5.335868E-04   5.334105E-04   5.332672E-04   5.331570E-04   5.330798E-04   5.330467E-04   5.330357E-04   5.330578E-04   5.331128E-04   5.332010E-04   5.333223E-04   5.334656E-04   5.336420E-04   5.338404E-04   5.340608E-04   5.343143E-04   5.345348E-04   5.350749E-04   5.352843E-04   5.355598E-04   5.358023E-04   5.362873E-04   5.365519E-04   5.370369E-04   5.374447E-04   5.379407E-04
   5.414569E-04   5.404759E-04   5.396051E-04   5.386241E-04   5.376872E-04   5.369267E-04   5.363976E-04   5.355819E-04   5.347662E-04   5.340939E-04   5.334986E-04   5.329145E-04   5.323854E-04   5.319004E-04   5.314595E-04   5.310737E-04   5.307210E-04   5.304234E-04   5.301699E-04   5.299604E-04   5.297951E-04   5.296739E-04   5.295967E-04   5.295636E-04   5.295636E-04   5.296078E-04   5.296959E-04   5.298171E-04   5.299715E-04   5.301699E-04   5.304124E-04   5.308202E-04   5.311068E-04   5.315808E-04   5.317681E-04   5.322752E-04   5.324516E-04   5.329035E-04   5.335317E-04   5.340388E-04
   5.407074E-04   5.400791E-04   5.393737E-04   5.385249E-04   5.375770E-04   5.367834E-04   5.361330E-04   5.355930E-04   5.348985E-04   5.343143E-04   5.336089E-04   5.330247E-04   5.324736E-04   5.319666E-04   5.314816E-04   5.310407E-04   5.306328E-04   5.302691E-04   5.299384E-04   5.296408E-04   5.293873E-04   5.291778E-04   5.290125E-04   5.288802E-04   5.287921E-04   5.287370E-04   5.287370E-04   5.287700E-04   5.288362E-04   5.289464E-04   5.291007E-04   5.294093E-04   5.295306E-04   5.296849E-04   5.300817E-04   5.304124E-04   5.308422E-04   5.311398E-04   5.316138E-04   5.318233E-04
   5.440031E-04   5.434630E-04   5.431323E-04   5.425701E-04   5.421513E-04   5.413577E-04   5.406963E-04   5.400901E-04   5.392304E-04   5.387894E-04   5.381832E-04   5.375329E-04   5.368826E-04   5.362433E-04   5.356150E-04   5.350087E-04   5.344136E-04   5.338514E-04   5.333003E-04   5.327822E-04   5.322972E-04   5.318453E-04   5.314265E-04   5.310407E-04   5.306990E-04   5.304014E-04   5.301478E-04   5.299384E-04   5.297731E-04   5.296628E-04   5.297069E-04   5.297400E-04   5.295306E-04   5.297510E-04   5.297951E-04   5.301589E-04   5.304785E-04   5.307320E-04   5.312721E-04   5.315587E-04
   5.330357E-04   5.328924E-04   5.328042E-04   5.328704E-04   5.324626E-04   5.325948E-04   5.323413E-04   5.319555E-04   5.317791E-04   5.313603E-04   5.312721E-04   5.310076E-04   5.307430E-04   5.304675E-04   5.301809E-04   5.299053E-04   5.296188E-04   5.293432E-04   5.290787E-04   5.288141E-04   5.285716E-04   5.283402E-04   5.281417E-04   5.279544E-04   5.278001E-04   5.276788E-04   5.275906E-04   5.275355E-04   5.275245E-04   5.275465E-04   5.274363E-04   5.277559E-04   5.278992E-04   5.278772E-04   5.284945E-04   5.288913E-04   5.293432E-04   5.296408E-04   5.300266E-04   5.307430E-04
   5.332341E-04   5.339285E-04   5.340939E-04   5.344797E-04   5.348544E-04   5.351961E-04   5.355488E-04   5.357583E-04   5.358905E-04   5.362873E-04   5.364968E-04   5.366842E-04   5.368495E-04   5.369928E-04   5.371030E-04   5.372022E-04   5.372684E-04   5.373124E-04   5.373455E-04   5.373565E-04   5.373565E-04   5.373345E-04   5.373014E-04   5.372574E-04   5.372022E-04   5.371471E-04   5.370920E-04   5.370259E-04   5.369707E-04   5.369156E-04   5.368605E-04   5.369156E-04   5.369487E-04   5.370038E-04   5.368936E-04   5.368164E-04   5.369597E-04   5.370479E-04   5.369817E-04   5.369928E-04
   5.450282E-04   5.458989E-04   5.464501E-04   5.472216E-04   5.480704E-04   5.488640E-04   5.494923E-04   5.502749E-04   5.510465E-04   5.515424E-04   5.521928E-04   5.527990E-04   5.533611E-04   5.539012E-04   5.544193E-04   5.548933E-04   5.553452E-04   5.557751E-04   5.561719E-04   5.565356E-04   5.568773E-04   5.571970E-04   5.574836E-04   5.577481E-04   5.579906E-04   5.582000E-04   5.583984E-04   5.585748E-04   5.587291E-04   5.588614E-04   5.587622E-04   5.589826E-04   5.589275E-04   5.591149E-04   5.591259E-04   5.591700E-04   5.595337E-04   5.594676E-04   5.595117E-04   5.596440E-04
   5.530635E-04   5.537029E-04   5.545626E-04   5.555877E-04   5.560176E-04   5.568002E-04   5.577040E-04   5.584315E-04   5.589716E-04   5.596991E-04   5.604376E-04   5.610879E-04   5.617052E-04   5.623004E-04   5.628846E-04   5.634357E-04   5.639648E-04   5.644718E-04   5.649568E-04   5.654308E-04   5.658717E-04   5.662905E-04   5.666873E-04   5.670621E-04   5.674148E-04   5.677455E-04   5.680541E-04   5.683296E-04   5.685832E-04   5.688146E-04   5.690351E-04   5.692886E-04   5.693658E-04   5.693878E-04   5.695311E-04   5.696744E-04   5.698177E-04   5.698618E-04   5.696083E-04   5.696303E-04
   5.519834E-04   5.527549E-04   5.534604E-04   5.538572E-04   5.545957E-04   5.552570E-04   5.558302E-04   5.563924E-04   5.569875E-04   5.578363E-04   5.582772E-04   5.588173E-04   5.593133E-04   5.597873E-04   5.602281E-04   5.606470E-04   5.610218E-04   5.613635E-04   5.616831E-04   5.619587E-04   5.622012E-04   5.624106E-04   5.625869E-04   5.627192E-04   5.628184E-04   5.628736E-04   5.628956E-04   5.628846E-04   5.628295E-04   5.627413E-04   5.626862E-04   5.625098E-04   5.620579E-04   5.619476E-04   5.616500E-04   5.613745E-04   5.611100E-04   5.606801E-04   5.601731E-04   5.596770E-04
   5.504512E-04   5.506386E-04   5.508591E-04   5.508150E-04   5.509693E-04   5.513551E-04   5.510905E-04   5.512779E-04   5.513771E-04   5.512999E-04   5.513109E-04   5.512889E-04   5.512448E-04   5.511787E-04   5.510905E-04   5.509803E-04   5.508480E-04   5.507047E-04   5.505504E-04   5.503740E-04   5.501757E-04   5.499772E-04   5.497568E-04   5.495253E-04   5.492828E-04   5.490403E-04   5.487758E-04   5.485113E-04   5.482357E-04   5.479602E-04   5.477397E-04   5.473980E-04   5.473429E-04   5.470783E-04   5.465603E-04   5.462847E-04   5.457777E-04   5.453919E-04   5.451384E-04   5.449069E-04
   5.488199E-04   5.484341E-04   5.479381E-04   5.474641E-04   5.466926E-04   5.460753E-04   5.453809E-04   5.447526E-04   5.440692E-04   5.436945E-04   5.427906E-04   5.420962E-04   5.413907E-04   5.406963E-04   5.400130E-04   5.393295E-04   5.386682E-04   5.380179E-04   5.373896E-04   5.367944E-04   5.362102E-04   5.356480E-04   5.351300E-04   5.346340E-04   5.341710E-04   5.337522E-04   5.333664E-04   5.330137E-04   5.326940E-04   5.324185E-04   5.320327E-04   5.318453E-04   5.316910E-04   5.316579E-04   5.314816E-04   5.314154E-04   5.314816E-04   5.316689E-04   5.316248E-04   5.314705E-04
   5.434409E-04   5.429780E-04   5.423828E-04   5.416443E-04   5.411482E-04   5.405861E-04   5.402444E-04   5.394508E-04   5.387784E-04   5.383596E-04   5.376982E-04   5.371361E-04   5.365849E-04   5.360559E-04   5.355488E-04   5.350639E-04   5.345899E-04   5.341490E-04   5.337411E-04   5.333553E-04   5.330027E-04   5.326830E-04   5.323854E-04   5.321319E-04   5.319114E-04   5.317351E-04   5.315808E-04   5.314705E-04   5.314044E-04   5.313713E-04   5.314044E-04   5.314265E-04   5.315587E-04   5.316689E-04   5.317571E-04   5.319666E-04   5.321098E-04   5.323744E-04   5.326499E-04   5.329585E-04
   5.392193E-04   5.392414E-04   5.389879E-04   5.389768E-04   5.389548E-04   5.389768E-04   5.389768E-04   5.391862E-04   5.391862E-04   5.391973E-04   5.393405E-04   5.394508E-04   5.395831E-04   5.397263E-04   5.398807E-04   5.400460E-04   5.402334E-04   5.404208E-04   5.406081E-04   5.408066E-04   5.410160E-04   5.412254E-04   5.414349E-04   5.416443E-04   5.418647E-04   5.420742E-04   5.422836E-04   5.425040E-04   5.427134E-04   5.429229E-04   5.431544E-04   5.434850E-04   5.437826E-04   5.437826E-04   5.440141E-04   5.440472E-04   5.442235E-04   5.444220E-04   5.445983E-04   5.446644E-04
   5.308973E-04   5.305997E-04   5.303242E-04   5.301589E-04   5.300266E-04   5.297731E-04   5.297290E-04   5.297841E-04   5.296408E-04   5.296628E-04   5.297841E-04   5.298833E-04   5.300156E-04   5.301699E-04   5.303683E-04   5.305997E-04   5.308533E-04   5.311288E-04   5.314375E-04   5.317571E-04   5.321098E-04   5.324626E-04   5.328373E-04   5.332231E-04   5.336199E-04   5.340167E-04   5.344246E-04   5.348324E-04   5.352402E-04   5.356591E-04   5.360008E-04   5.365849E-04   5.369707E-04   5.374447E-04   5.376542E-04   5.381611E-04   5.384257E-04   5.388776E-04   5.393957E-04   5.397374E-04
   5.299935E-04   5.295636E-04   5.291999E-04   5.289464E-04   5.285496E-04   5.282520E-04   5.278662E-04   5.277229E-04   5.275024E-04   5.272379E-04   5.271938E-04   5.270726E-04   5.269954E-04   5.269513E-04   5.269293E-04   5.269513E-04   5.269954E-04   5.270726E-04   5.271828E-04   5.273151E-04   5.274694E-04   5.276458E-04   5.278441E-04   5.280646E-04   5.282960E-04   5.285496E-04   5.288141E-04   5.290897E-04   5.293653E-04   5.296628E-04   5.299715E-04   5.303793E-04   5.305226E-04   5.306990E-04   5.311840E-04   5.314154E-04   5.317902E-04   5.321209E-04   5.324846E-04   5.328594E-04
   5.345789E-04   5.344907E-04   5.342813E-04   5.342482E-04   5.340608E-04   5.339616E-04   5.338514E-04   5.337081E-04   5.335207E-04   5.336750E-04   5.335868E-04   5.335868E-04   5.336199E-04   5.336530E-04   5.337081E-04   5.337632E-04   5.338183E-04   5.338844E-04   5.339506E-04   5.340167E-04   5.340829E-04   5.341379E-04   5.342041E-04   5.342592E-04   5.343143E-04   5.343694E-04   5.344246E-04   5.344686E-04   5.345237E-04   5.345789E-04   5.345237E-04   5.346781E-04   5.345568E-04   5.348324E-04   5.348875E-04   5.348544E-04   5.349977E-04   5.351190E-04   5.350969E-04   5.352402E-04
CONSTANT    1.000000E+00                           #vka1                          
