# File generated by Flopy version 3.10.0.dev3 on 06/16/2025 at 06:44:22.
BEGIN options
  READASARRAYS
END options

BEGIN period  1
  recharge
    CONSTANT  1.00000000E-06
END period  1

