# File generated by Flopy version 3.10.0.dev3 on 06/16/2025 at 06:44:22.
BEGIN options
END options

BEGIN dimensions
  MAXBOUND  88
END dimensions

BEGIN period  1
  1 7 1 5.05555573E+01 5.79524224E+02
  1 8 1 4.94444427E+01 2.67925257E+04
  1 9 1 4.83333321E+01 1.71761689E+04
  1 9 2 4.55555573E+01 2.50848438E+04
  1 9 3 4.50000000E+01 5.18962780E+02
  1 10 3 4.27777786E+01 2.34960605E+04
  1 10 4 4.00000000E+01 2.20082768E+04
  1 10 5 3.72222214E+01 2.07335677E+04
  1 10 6 3.44444427E+01 2.01364529E+04
  1 10 7 3.38888893E+01 1.93806921E+02
END period  1

