# File generated by Flopy version 3.9.1 on 06/14/2025 at 10:34:05.
BEGIN OPTIONS
  BUDGET  FILEOUT  freyberg.cbc
  HEAD  FILEOUT  freyberg.hds
END OPTIONS

BEGIN PERIOD  1
  SAVE  head  all
  SAVE  budget  all
  PRINT  budget  all
END PERIOD  1

