# File generated by Flopy version 3.10.0.dev3 on 06/15/2025 at 08:21:36.
BEGIN OPTIONS
  PRINT_INPUT
  PRINT_FLOWS
  SAVE_FLOWS
END OPTIONS

BEGIN DIMENSIONS
  MAXBOUND  6
END DIMENSIONS

BEGIN PERIOD  1
  1 9 16 -8.20000000E-03
  1 11 13 -4.10000000E-03
  1 20 14 -3.90000000E-03
  1 26 10 -8.30000000E-04
  1 29 6 -7.20000000E-04
  1 34 12 -4.30000000E-03
END PERIOD  1

