# File generated by Flopy version 3.10.0.dev3 on 06/15/2025 at 08:21:36.
BEGIN OPTIONS
  READASARRAYS
  PRINT_INPUT
  PRINT_FLOWS
  SAVE_FLOWS
END OPTIONS

BEGIN PERIOD  1
  recharge
    CONSTANT  1.60000000E-09
END PERIOD  1

