# File generated by Flopy version 3.10.0.dev3 on 06/15/2025 at 08:21:36.
BEGIN OPTIONS
END OPTIONS

BEGIN TIMING
  TDIS6  freyberg.tdis
END TIMING

BEGIN MODELS
  gwf6  freyberg.nam  freyberg
END MODELS

BEGIN EXCHANGES
END EXCHANGES

BEGIN SOLUTIONGROUP  1
  MXITER  1
  ims6  freyberg.ims  freyberg
END SOLUTIONGROUP  1

