# File generated by Flopy version 3.9.1 on 02/21/2025 at 14:53:13.
BEGIN options
END options

BEGIN griddata
  porosity
    CONSTANT       1.95700000
END griddata

