# File generated by Flopy version 3.10.0.dev3 on 06/15/2025 at 07:23:09.
BEGIN options
  BUDGET  FILEOUT  model_3.cbc
  HEAD  FILEOUT  model_3.hds
END options

BEGIN period  1
  SAVE  HEAD  ALL
  SAVE  BUDGET  ALL
  PRINT  BUDGET  ALL
END period  1

