# File generated by Flopy version 3.10.0.dev3 on 06/16/2025 at 06:44:25.
BEGIN options
END options

BEGIN dimensions
  MAXBOUND  88
END dimensions

BEGIN period  1
  1 4 11 7.05555573E+01 1.57454081E+04
  1 5 8 7.88888855E+01 1.47679933E+04
  1 5 9 7.61111145E+01 3.34673180E+04
  1 5 10 7.33333359E+01 3.19877306E+04
  1 5 11 7.11855850E+01 1.49273678E+04
  1 6 6 8.44444427E+01 1.97898907E+04
  1 6 7 8.16666641E+01 3.64460776E+04
  1 6 8 7.96304092E+01 2.18392358E+04
  1 7 6 8.53349686E+01 8.32035942E+03
END period  1

