# File generated by Flopy version 3.10.0.dev3 on 06/16/2025 at 06:44:25.
BEGIN options
END options

BEGIN dimensions
  MAXBOUND  88
END dimensions

BEGIN period  1
  1 3 2 1.77777786E+01 1.34416454E+04
  1 3 3 1.50000000E+01 1.42845107E+04
  1 3 4 1.22222223E+01 1.35347344E+04
  1 3 5 1.05555563E+01 6.94217554E+03
  1 4 1 2.05555553E+01 1.58670611E+04
  1 4 2 2.00000000E+01 1.69978206E+03
  1 4 5 9.44444466E+00 6.00699616E+03
  1 4 6 6.66666651E+00 1.23466489E+04
  1 4 7 3.88888884E+00 1.17319741E+04
  1 4 8 1.11111104E+00 1.04788442E+04
  1 4 9 3.64044738E+00 9.62218555E+03
END period  1

