# File generated by Flopy version 3.10.0.dev3 on 06/16/2025 at 06:44:25.
BEGIN options
  auxiliary  depth
  AUXDEPTHNAME  depth
END options

BEGIN dimensions
  MAXBOUND  470
END dimensions

BEGIN period  1
  1 2 8 9.99909973E+01 1.00000000E+07 1.00000000E+00
  1 3 6 1.00726570E+02 1.00000000E+07 1.00000000E+00
  1 3 7 1.00334579E+02 1.00000000E+07 1.00000000E+00
  1 3 8 9.95840683E+01 1.00000000E+07 1.00000000E+00
  1 4 5 1.00493111E+02 1.00000000E+07 1.00000000E+00
  1 4 6 9.99970627E+01 1.00000000E+07 1.00000000E+00
  1 4 7 9.92476196E+01 1.00000000E+07 1.00000000E+00
  1 4 8 9.82745361E+01 1.00000000E+07 1.00000000E+00
  1 5 4 1.00522438E+02 1.00000000E+07 1.00000000E+00
  1 5 5 9.94193268E+01 1.00000000E+07 1.00000000E+00
  1 5 6 9.82438049E+01 1.00000000E+07 1.00000000E+00
  1 5 7 9.71130371E+01 1.00000000E+07 1.00000000E+00
  1 5 8 9.59330521E+01 1.00000000E+07 1.00000000E+00
  1 6 2 1.02852043E+02 1.00000000E+07 1.00000000E+00
  1 6 3 1.01478462E+02 1.00000000E+07 1.00000000E+00
  1 6 4 9.96389084E+01 1.00000000E+07 1.00000000E+00
  1 6 5 9.71156006E+01 1.00000000E+07 1.00000000E+00
  1 6 6 9.51114655E+01 1.00000000E+07 1.00000000E+00
  1 6 7 9.37269897E+01 1.00000000E+07 1.00000000E+00
  1 6 8 9.24234085E+01 1.00000000E+07 1.00000000E+00
  1 6 9 9.10365753E+01 1.00000000E+07 1.00000000E+00
  1 7 2 1.02971169E+02 1.00000000E+07 1.00000000E+00
  1 7 3 1.01552849E+02 1.00000000E+07 1.00000000E+00
  1 7 4 9.81781082E+01 1.00000000E+07 1.00000000E+00
  1 7 5 9.26242828E+01 1.00000000E+07 1.00000000E+00
  1 7 6 8.99708862E+01 1.00000000E+07 1.00000000E+00
  1 7 7 8.89646072E+01 1.00000000E+07 1.00000000E+00
  1 7 8 8.76186905E+01 1.00000000E+07 1.00000000E+00
  1 7 9 8.61735992E+01 1.00000000E+07 1.00000000E+00
  1 8 1 1.04792526E+02 1.00000000E+07 1.00000000E+00
  1 8 2 1.03511848E+02 1.00000000E+07 1.00000000E+00
  1 8 3 1.01535309E+02 1.00000000E+07 1.00000000E+00
  1 8 4 9.76040802E+01 1.00000000E+07 1.00000000E+00
  1 8 5 8.95143127E+01 1.00000000E+07 1.00000000E+00
  1 8 7 8.31271973E+01 1.00000000E+07 1.00000000E+00
  1 8 8 8.13734283E+01 1.00000000E+07 1.00000000E+00
  1 8 9 7.97845078E+01 1.00000000E+07 1.00000000E+00
  1 9 1 1.05032288E+02 1.00000000E+07 1.00000000E+00
  1 9 2 1.03997726E+02 1.00000000E+07 1.00000000E+00
  1 9 3 1.01690712E+02 1.00000000E+07 1.00000000E+00
  1 9 4 9.77479782E+01 1.00000000E+07 1.00000000E+00
  1 9 5 9.14406052E+01 1.00000000E+07 1.00000000E+00
  1 10 1 1.05650620E+02 1.00000000E+07 1.00000000E+00
  1 10 2 1.04458153E+02 1.00000000E+07 1.00000000E+00
  1 10 3 1.02158379E+02 1.00000000E+07 1.00000000E+00
  1 10 4 9.86644211E+01 1.00000000E+07 1.00000000E+00
  1 10 5 9.40742874E+01 1.00000000E+07 1.00000000E+00
  1 10 6 8.91506195E+01 1.00000000E+07 1.00000000E+00
  1 10 7 8.48581238E+01 1.00000000E+07 1.00000000E+00
  1 10 8 8.11987610E+01 1.00000000E+07 1.00000000E+00
  1 11 1 1.05961098E+02 1.00000000E+07 1.00000000E+00
  1 11 2 1.04776970E+02 1.00000000E+07 1.00000000E+00
  1 11 3 1.02596184E+02 1.00000000E+07 1.00000000E+00
  1 11 4 9.94940491E+01 1.00000000E+07 1.00000000E+00
  1 11 5 9.56717300E+01 1.00000000E+07 1.00000000E+00
  1 11 6 9.15032196E+01 1.00000000E+07 1.00000000E+00
  1 11 7 8.74020386E+01 1.00000000E+07 1.00000000E+00
  1 12 1 1.05928131E+02 1.00000000E+07 1.00000000E+00
  1 12 2 1.04676430E+02 1.00000000E+07 1.00000000E+00
  1 12 3 1.02532387E+02 1.00000000E+07 1.00000000E+00
  1 12 4 9.95986404E+01 1.00000000E+07 1.00000000E+00
  1 12 5 9.60337677E+01 1.00000000E+07 1.00000000E+00
  1 12 6 9.20463486E+01 1.00000000E+07 1.00000000E+00
  1 12 7 8.78834381E+01 1.00000000E+07 1.00000000E+00
END period  1

