# File generated by Flopy version 3.10.0.dev3 on 06/15/2025 at 07:23:09.
BEGIN options
END options

BEGIN dimensions
  MAXBOUND  88
END dimensions

BEGIN period  1
  1 7 1 5.05555573E+01 5.79524224E+02
  1 8 1 4.94444427E+01 2.67925257E+04
END period  1

