# File generated by Flopy version 3.10.0.dev3 on 06/16/2025 at 06:44:25.
BEGIN options
  auxiliary  depth
  AUXDEPTHNAME  depth
END options

BEGIN dimensions
  MAXBOUND  470
END dimensions

BEGIN period  1
  1 1 7 1.96195526E+01 1.00000000E+07 1.00000000E+00
  1 2 1 2.97115879E+01 1.00000000E+07 1.00000000E+00
  1 2 2 2.72452793E+01 1.00000000E+07 1.00000000E+00
  1 2 3 2.46894455E+01 1.00000000E+07 1.00000000E+00
  1 2 4 2.21551628E+01 1.00000000E+07 1.00000000E+00
  1 2 5 1.99355049E+01 1.00000000E+07 1.00000000E+00
  1 2 6 1.78815155E+01 1.00000000E+07 1.00000000E+00
  1 2 7 1.58209991E+01 1.00000000E+07 1.00000000E+00
  1 2 8 1.44320211E+01 1.00000000E+07 1.00000000E+00
  1 2 9 1.53056841E+01 1.00000000E+07 1.00000000E+00
  1 3 1 2.11644993E+01 1.00000000E+07 1.00000000E+00
  1 3 6 1.00971069E+01 1.00000000E+07 1.00000000E+00
  1 3 7 9.42963219E+00 1.00000000E+07 1.00000000E+00
  1 3 8 8.77938557E+00 1.00000000E+07 1.00000000E+00
  1 3 9 1.15537338E+01 1.00000000E+07 1.00000000E+00
  1 4 3 1.69227848E+01 1.00000000E+07 1.00000000E+00
  1 4 4 1.38338470E+01 1.00000000E+07 1.00000000E+00
  1 5 1 3.26145744E+01 1.00000000E+07 1.00000000E+00
  1 5 2 3.03083382E+01 1.00000000E+07 1.00000000E+00
  1 5 3 2.74376945E+01 1.00000000E+07 1.00000000E+00
  1 5 4 2.38564377E+01 1.00000000E+07 1.00000000E+00
  1 5 5 1.94377689E+01 1.00000000E+07 1.00000000E+00
  1 5 6 1.44529543E+01 1.00000000E+07 1.00000000E+00
  1 5 7 9.46566200E+00 1.00000000E+07 1.00000000E+00
  1 5 8 7.23176527E+00 1.00000000E+07 1.00000000E+00
  1 5 9 1.23468513E+01 1.00000000E+07 1.00000000E+00
  1 6 1 4.18743515E+01 1.00000000E+07 1.00000000E+00
  1 6 2 3.90961456E+01 1.00000000E+07 1.00000000E+00
  1 6 3 3.58804398E+01 1.00000000E+07 1.00000000E+00
  1 6 4 3.21487999E+01 1.00000000E+07 1.00000000E+00
  1 6 5 2.79785461E+01 1.00000000E+07 1.00000000E+00
  1 6 6 2.36650486E+01 1.00000000E+07 1.00000000E+00
  1 6 7 1.98815193E+01 1.00000000E+07 1.00000000E+00
  1 6 8 1.79869061E+01 1.00000000E+07 1.00000000E+00
  1 6 9 2.05110779E+01 1.00000000E+07 1.00000000E+00
  1 7 1 4.91035461E+01 1.00000000E+07 1.00000000E+00
  1 7 2 4.60685234E+01 1.00000000E+07 1.00000000E+00
  1 7 3 4.25367012E+01 1.00000000E+07 1.00000000E+00
  1 7 4 3.85242615E+01 1.00000000E+07 1.00000000E+00
  1 7 5 3.42067719E+01 1.00000000E+07 1.00000000E+00
  1 7 6 2.98641682E+01 1.00000000E+07 1.00000000E+00
  1 7 7 2.57623692E+01 1.00000000E+07 1.00000000E+00
  1 7 8 2.28673420E+01 1.00000000E+07 1.00000000E+00
  1 8 1 5.47530441E+01 1.00000000E+07 1.00000000E+00
  1 8 2 5.15241203E+01 1.00000000E+07 1.00000000E+00
  1 8 3 4.76284294E+01 1.00000000E+07 1.00000000E+00
  1 8 4 4.30803986E+01 1.00000000E+07 1.00000000E+00
  1 8 5 3.82998962E+01 1.00000000E+07 1.00000000E+00
  1 8 6 3.34509392E+01 1.00000000E+07 1.00000000E+00
  1 8 7 3.28168144E+01 1.00000000E+07 1.00000000E+00
  1 9 1 5.91137047E+01 1.00000000E+07 1.00000000E+00
  1 9 2 5.57826538E+01 1.00000000E+07 1.00000000E+00
  1 9 3 5.15889549E+01 1.00000000E+07 1.00000000E+00
  1 9 4 4.85625229E+01 1.00000000E+07 1.00000000E+00
  1 10 1 6.23696632E+01 1.00000000E+07 1.00000000E+00
  1 10 2 5.88852654E+01 1.00000000E+07 1.00000000E+00
  1 10 3 5.83757019E+01 1.00000000E+07 1.00000000E+00
  1 11 1 6.58084259E+01 1.00000000E+07 1.00000000E+00
END period  1

