# File generated by Flopy version 3.10.0.dev3 on 06/16/2025 at 06:44:25.
BEGIN options
  XORIGIN   90000.00000000
  YORIGIN   55000.00000000
END options

BEGIN dimensions
  NLAY  2
  NROW  10
  NCOL  19
END dimensions

BEGIN griddata
  delr
    INTERNAL  FACTOR  1.0
      5000.00000000    5000.00000000    5000.00000000    5000.00000000    5000.00000000    5000.00000000    5000.00000000    5000.00000000    5000.00000000    5000.00000000    5000.00000000    5000.00000000    5000.00000000    5000.00000000    5000.00000000    5000.00000000    5000.00000000    5000.00000000    5000.00000000
  delc
    INTERNAL  FACTOR  1.0
      5000.00000000    5000.00000000    5000.00000000    5000.00000000    5000.00000000    5000.00000000    5000.00000000    5000.00000000    5000.00000000    5000.00000000
  top
    INTERNAL  FACTOR  1.0
        67.95307159      67.08169556      67.00645447      66.26735687      65.70725250      65.15328217      63.83684158      62.15637970      60.18175125      60.18175125      58.35778427      52.93722153      51.20437241      51.20437241      50.16458130      47.71946335      47.71946335      44.04087067      40.99962997
        67.95307159      67.08169556      66.40056610      66.26735687      65.70725250      65.15328217      63.83684158      62.15637970      60.18175125      59.30734634      52.93722153      52.93722153      51.20437241      51.20437241      48.97345734      47.71946335      47.71946335      40.99962997      40.99962997
        67.49756622      67.00645447      66.40056610      65.78166199      65.15328217      63.83684158      63.17837143      61.36823273      60.18175125      58.35778427      52.93722153      52.93722153      51.20437241      50.16458130      47.71946335      47.71946335      44.04087067      40.99962997      36.22415924
        66.10717773      65.89859009      65.64193726      65.13110352      64.18395996      63.83684158      62.15637970      60.18175125      59.30734634      55.99590683      52.93722153      51.20437241      51.20437241      48.97345734      47.71946335      44.04087067      40.99962997      36.22415924      36.22415924
        61.75797272      63.02060318      63.67755890      63.62630844      62.98958588      61.95140839      60.52481461      59.30734634      58.35778427      55.99590683      52.93722153      51.20437241      50.16458130      47.71946335      44.04087067      40.99962997      40.99962997      36.22415924      29.29211807
        56.03382492      58.95616531      60.42432785      60.98432159      60.59080887      59.82408905      58.73880768      57.30831528      55.37643814      53.35088730      51.43504333      51.20437241      48.97345734      47.71946335      44.04087067      40.99962997      36.22415924      29.29211807      29.29211807
        50.55555725      54.62570190      56.39251328      57.09560776      56.93693542      56.38941574      55.62852478      54.62416458      53.31422043      51.74875641      49.94956207      47.81800079      45.84745407      44.04087067      40.99962997      36.22415924      34.95113373      29.29211807      23.74958992
        49.44444275      50.49948120      51.60012817      52.09242249      51.84635925      51.44017410      51.04969025      50.58082199      49.82624817      48.66368484      47.05564880      44.97275543      42.33663177      39.17969513      38.48136902      34.95113373      29.29211807      23.74958992      20.11955261
         0.00000000       0.00000000       0.00000000       0.00000000       0.00000000       0.00000000       0.00000000       0.00000000      44.97594452      44.24005508      42.82469940      40.82455444      38.32235718      35.34433365      31.82070541      29.29211807      26.27565956      20.11955261      17.02588463
         0.00000000       0.00000000       0.00000000       0.00000000       0.00000000       0.00000000       0.00000000       0.00000000       0.00000000       0.00000000      37.24243927      35.19605255      32.75003815      30.03706741      27.08341408      23.76416206       0.00000000       0.00000000       0.00000000
  botm  LAYERED
    INTERNAL  FACTOR  1.0
          62.95307159      62.08169556      62.00645447      61.26735687      60.70725250      60.15328217      58.83684158      57.15637970      55.18175125      55.18175125      53.35778427      47.93722153      46.20437241      46.20437241      45.16458130      42.71946335      42.71946335      39.04087067      35.99962997
          62.95307159      62.08169556      61.40056610      61.26735687      60.70725250      60.15328217      58.83684158      57.15637970      55.18175125      54.30734634      47.93722153      47.93722153      46.20437241      46.20437241      43.97345734      42.71946335      42.71946335      35.99962997      35.99962997
          62.49756622      62.00645447      61.40056610      60.78166199      60.15328217      58.83684158      58.17837143      56.36823273      55.18175125      53.35778427      47.93722153      47.93722153      46.20437241      45.16458130      42.71946335      42.71946335      39.04087067      35.99962997      31.22415924
          61.10717773      60.89859009      60.64193726      60.13110352      59.18395996      58.83684158      57.15637970      55.18175125      54.30734634      50.99590683      47.93722153      46.20437241      46.20437241      43.97345734      42.71946335      39.04087067      35.99962997      31.22415924      31.22415924
          56.75797272      58.02060318      58.67755890      58.62630844      57.98958588      56.95140839      55.52481461      54.30734634      53.35778427      50.99590683      47.93722153      46.20437241      45.16458130      42.71946335      39.04087067      35.99962997      35.99962997      31.22415924      24.29211807
          51.03382492      53.95616531      55.42432785      55.98432159      55.59080887      54.82408905      53.73880768      52.30831528      50.37643814      48.35088730      46.43504333      46.20437241      43.97345734      42.71946335      39.04087067      35.99962997      31.22415924      24.29211807      24.29211807
          45.55555725      49.62570190      51.39251328      52.09560776      51.93693542      51.38941574      50.62852478      49.62416458      48.31422043      46.74875641      44.94956207      42.81800079      40.84745407      39.04087067      35.99962997      31.22415924      29.95113373      24.29211807      18.74958992
          44.44444275      45.49948120      46.60012817      47.09242249      46.84635925      46.44017410      46.04969025      45.58082199      44.82624817      43.66368484      42.05564880      39.97275543      37.33663177      34.17969513      33.48136902      29.95113373      24.29211807      18.74958992      15.11955261
           0.00000000       0.00000000       0.00000000       0.00000000       0.00000000       0.00000000       0.00000000       0.00000000      39.97594452      39.24005508      37.82469940      35.82455444      33.32235718      30.34433365      26.82070541      24.29211807      21.27565956      15.11955261      12.02588463
           0.00000000       0.00000000       0.00000000       0.00000000       0.00000000       0.00000000       0.00000000       0.00000000       0.00000000       0.00000000      32.24243927      30.19605255      27.75003815      25.03706741      22.08341408      18.76416206       0.00000000       0.00000000       0.00000000
    INTERNAL  FACTOR  1.0
          55.45307159      54.58169556      54.50645447      53.76735687      53.20725250      52.65328217      51.33684158      49.65637970      47.68175125      47.68175125      45.85778427      40.43722153      38.70437241      38.70437241      37.66458130      35.21946335      35.21946335      31.54087067      28.49962997
          55.45307159      54.58169556      53.90056610      53.76735687      53.20725250      52.65328217      51.33684158      49.65637970      47.68175125      46.80734634      40.43722153      40.43722153      38.70437241      38.70437241      36.47345734      35.21946335      35.21946335      28.49962997      28.49962997
          54.99756622      54.50645447      53.90056610      53.28166199      52.65328217      51.33684158      50.67837143      48.86823273      47.68175125      45.85778427      40.43722153      40.43722153      38.70437241      37.66458130      35.21946335      35.21946335      31.54087067      28.49962997      23.72415924
          53.60717773      53.39859009      53.14193726      52.63110352      51.68395996      51.33684158      49.65637970      47.68175125      46.80734634      43.49590683      40.43722153      38.70437241      38.70437241      36.47345734      35.21946335      31.54087067      28.49962997      23.72415924      23.72415924
          49.25797272      50.52060318      51.17755890      51.12630844      50.48958588      49.45140839      48.02481461      46.80734634      45.85778427      43.49590683      40.43722153      38.70437241      37.66458130      35.21946335      31.54087067      28.49962997      28.49962997      23.72415924      16.79211807
          43.53382492      46.45616531      47.92432785      48.48432159      48.09080887      47.32408905      46.23880768      44.80831528      42.87643814      40.85088730      38.93504333      38.70437241      36.47345734      35.21946335      31.54087067      28.49962997      23.72415924      16.79211807      16.79211807
          38.05555725      42.12570190      43.89251328      44.59560776      44.43693542      43.88941574      43.12852478      42.12416458      40.81422043      39.24875641      37.44956207      35.31800079      33.34745407      31.54087067      28.49962997      23.72415924      22.45113373      16.79211807      11.24958992
          36.94444275      37.99948120      39.10012817      39.59242249      39.34635925      38.94017410      38.54969025      38.08082199      37.32624817      36.16368484      34.55564880      32.47275543      29.83663177      26.67969513      25.98136902      22.45113373      16.79211807      11.24958992       7.61955261
           0.00000000       0.00000000       0.00000000       0.00000000       0.00000000       0.00000000       0.00000000       0.00000000      32.47594452      31.74005508      30.32469940      28.32455444      25.82235718      22.84433365      19.32070541      16.79211807      13.77565956       7.61955261       4.52588463
           0.00000000       0.00000000       0.00000000       0.00000000       0.00000000       0.00000000       0.00000000       0.00000000       0.00000000       0.00000000      24.74243927      22.69605255      20.25003815      17.53706741      14.58341408      11.26416206       0.00000000       0.00000000       0.00000000
  idomain
    INTERNAL  FACTOR  1
      0  0  0  0  0  0  0  0  0  0  0  0  0  0  0  0  0  0  0
      0  0  0  0  0  0  0  0  0  0  0  0  0  0  0  0  0  0  0
      1  1  0  0  0  0  0  0  0  0  0  0  0  0  0  0  0  0  0
      1  1  1  1  1  1  0  0  0  0  0  0  0  0  0  0  0  0  0
      1  1  1  1  1  1  1  1  0  0  0  0  0  0  0  0  0  0  0
      1  1  1  1  1  1  1  1  1  1  1  1  0  0  0  0  0  0  0
      1  1  1  1  1  1  1  1  1  1  1  1  1  0  0  0  0  0  0
      1  1  1  1  1  1  1  1  1  1  1  1  1  1  1  0  0  0  0
      0  0  0  0  0  0  0  0  1  1  1  1  1  1  1  1  0  0  0
      0  0  0  0  0  0  0  0  0  0  1  1  1  1  1  1  0  0  0
      0  0  0  0  0  0  0  0  0  0  0  0  0  0  0  0  0  0  0
      0  0  0  0  0  0  0  0  0  0  0  0  0  0  0  0  0  0  0
      1  1  0  0  0  0  0  0  0  0  0  0  0  0  0  0  0  0  0
      1  1  1  1  1  1  0  0  0  0  0  0  0  0  0  0  0  0  0
      1  1  1  1  1  1  1  1  0  0  0  0  0  0  0  0  0  0  0
      1  1  1  1  1  1  1  1  1  1  1  1  0  0  0  0  0  0  0
      1  1  1  1  1  1  1  1  1  1  1  1  1  0  0  0  0  0  0
      1  1  1  1  1  1  1  1  1  1  1  1  1  1  1  0  0  0  0
      0  0  0  0  0  0  0  0  1  1  1  1  1  1  1  1  0  0  0
      0  0  0  0  0  0  0  0  0  0  1  1  1  1  1  1  0  0  0
END griddata

