# File generated by Flopy version 3.10.0.dev3 on 06/16/2025 at 06:44:25.
BEGIN options
END options

BEGIN griddata
  strt  LAYERED
    INTERNAL  FACTOR  1.0
           0.00000000       0.00000000       0.00000000       0.00000000       0.00000000       0.00000000      20.11955261      20.11955261      15.80568409
          30.21158791      27.74527931      25.18944550      22.65516281      20.43550491      18.38151550      16.32099915      14.93202114      15.80568409
          21.66449928      17.77777863      15.00000000      12.22222233      10.55555630      10.59710693       9.92963219       9.27938557      12.05373383
          20.55555534      20.00000000      17.42278481      14.33384705       9.44444466       6.66666651       3.88888884       1.11111104       3.64044738
          33.11457443      30.80833817      27.93769455      24.35643768      19.93776894      14.95295429       9.96566200       7.73176527      12.84685135
          42.37435150      39.59614563      36.38043976      32.64879990      28.47854614      24.16504860      20.38151932      18.48690605      21.01107788
          49.60354614      46.56852341      43.03670120      39.02426147      34.70677185      30.36416817      26.26236916      23.36734200      22.38552666
          55.25304413      52.02412033      48.12842941      43.58039856      38.79989624      33.95093918      33.31681442      26.97802544      23.36734200
          59.61370468      56.28265381      52.08895493      49.06252289      45.19978333      39.18238449      35.65993881      30.98413849      26.97802544
          62.86966324      59.38526535      58.87570190      53.56578064      45.19978333      41.66490173      35.65993881      33.31681442      30.98413849
          66.30842590      64.83912659      62.05468369      58.87570190      53.56578064      41.66490173      35.65993881      35.65993881      30.98413849
          68.55593109      64.83912659      62.05468369      58.87570190      58.87570190      45.19978333      41.66490173      35.65993881      33.31681442
    INTERNAL  FACTOR  1.0
           0.00000000       0.00000000       0.00000000       0.00000000       0.00000000       0.00000000      20.11955261      20.11955261      15.80568409
          30.21158791      27.74527931      25.18944550      22.65516281      20.43550491      18.38151550      16.32099915      14.93202114      15.80568409
          21.66449928      17.77777863      15.00000000      12.22222233      10.55555630      10.59710693       9.92963219       9.27938557      12.05373383
          20.55555534      20.00000000      17.42278481      14.33384705       9.44444466       6.66666651       3.88888884       1.11111104       3.64044738
          33.11457443      30.80833817      27.93769455      24.35643768      19.93776894      14.95295429       9.96566200       7.73176527      12.84685135
          42.37435150      39.59614563      36.38043976      32.64879990      28.47854614      24.16504860      20.38151932      18.48690605      21.01107788
          49.60354614      46.56852341      43.03670120      39.02426147      34.70677185      30.36416817      26.26236916      23.36734200      22.38552666
          55.25304413      52.02412033      48.12842941      43.58039856      38.79989624      33.95093918      33.31681442      26.97802544      23.36734200
          59.61370468      56.28265381      52.08895493      49.06252289      45.19978333      39.18238449      35.65993881      30.98413849      26.97802544
          62.86966324      59.38526535      58.87570190      53.56578064      45.19978333      41.66490173      35.65993881      33.31681442      30.98413849
          66.30842590      64.83912659      62.05468369      58.87570190      53.56578064      41.66490173      35.65993881      35.65993881      30.98413849
          68.55593109      64.83912659      62.05468369      58.87570190      58.87570190      45.19978333      41.66490173      35.65993881      33.31681442
END griddata

