# File generated by Flopy version 3.10.0.dev3 on 06/15/2025 at 07:23:10.
BEGIN options
  auxiliary  depth
  AUXDEPTHNAME  depth
END options

BEGIN dimensions
  MAXBOUND  470
END dimensions

BEGIN period  1
  1 2 1 9.89864731E+01 1.00000000E+07 1.00000000E+00
  1 2 2 9.76816254E+01 1.00000000E+07 1.00000000E+00
  1 2 3 9.60261688E+01 1.00000000E+07 1.00000000E+00
  1 2 4 9.39369659E+01 1.00000000E+07 1.00000000E+00
  1 2 5 9.10606003E+01 1.00000000E+07 1.00000000E+00
  1 2 6 8.76528473E+01 1.00000000E+07 1.00000000E+00
  1 2 7 8.65312500E+01 1.00000000E+07 1.00000000E+00
  1 3 1 9.84963303E+01 1.00000000E+07 1.00000000E+00
  1 3 2 9.70645142E+01 1.00000000E+07 1.00000000E+00
  1 3 3 9.52476501E+01 1.00000000E+07 1.00000000E+00
  1 3 4 9.29415207E+01 1.00000000E+07 1.00000000E+00
  1 3 5 9.00152817E+01 1.00000000E+07 1.00000000E+00
  1 3 6 8.63893585E+01 1.00000000E+07 1.00000000E+00
  1 3 7 8.20052567E+01 1.00000000E+07 1.00000000E+00
  1 3 8 7.69940720E+01 1.00000000E+07 1.00000000E+00
  1 3 9 7.21189728E+01 1.00000000E+07 1.00000000E+00
  1 3 10 6.86157303E+01 1.00000000E+07 1.00000000E+00
  1 4 1 9.70521088E+01 1.00000000E+07 1.00000000E+00
  1 4 2 9.55351028E+01 1.00000000E+07 1.00000000E+00
  1 4 3 9.36490326E+01 1.00000000E+07 1.00000000E+00
  1 4 4 9.12748566E+01 1.00000000E+07 1.00000000E+00
  1 4 5 8.82553329E+01 1.00000000E+07 1.00000000E+00
  1 4 6 8.44109497E+01 1.00000000E+07 1.00000000E+00
  1 4 7 7.95688248E+01 1.00000000E+07 1.00000000E+00
  1 4 8 7.37959290E+01 1.00000000E+07 1.00000000E+00
  1 4 9 6.85755005E+01 1.00000000E+07 1.00000000E+00
  1 4 10 6.62607727E+01 1.00000000E+07 1.00000000E+00
  1 5 1 9.46049576E+01 1.00000000E+07 1.00000000E+00
  1 5 2 9.30584717E+01 1.00000000E+07 1.00000000E+00
  1 5 3 9.12029495E+01 1.00000000E+07 1.00000000E+00
  1 5 4 8.88927536E+01 1.00000000E+07 1.00000000E+00
  1 5 5 8.59149399E+01 1.00000000E+07 1.00000000E+00
  1 5 6 8.19792786E+01 1.00000000E+07 1.00000000E+00
  1 5 7 7.66479950E+01 1.00000000E+07 1.00000000E+00
  1 5 8 6.89659653E+01 1.00000000E+07 1.00000000E+00
  1 5 9 5.82757568E+01 1.00000000E+07 1.00000000E+00
  1 5 10 5.88231087E+01 1.00000000E+07 1.00000000E+00
  1 6 2 8.95314560E+01 1.00000000E+07 1.00000000E+00
  1 6 3 8.78337708E+01 1.00000000E+07 1.00000000E+00
  1 6 4 8.57762375E+01 1.00000000E+07 1.00000000E+00
  1 6 5 8.30816345E+01 1.00000000E+07 1.00000000E+00
  1 6 6 7.93823624E+01 1.00000000E+07 1.00000000E+00
  1 6 7 7.41700821E+01 1.00000000E+07 1.00000000E+00
  1 6 8 6.65488739E+01 1.00000000E+07 1.00000000E+00
  1 7 2 8.47664337E+01 1.00000000E+07 1.00000000E+00
  1 7 3 8.33827362E+01 1.00000000E+07 1.00000000E+00
  1 7 4 8.18522110E+01 1.00000000E+07 1.00000000E+00
  1 7 5 7.97770081E+01 1.00000000E+07 1.00000000E+00
  1 7 6 7.67247696E+01 1.00000000E+07 1.00000000E+00
  1 7 7 7.23159790E+01 1.00000000E+07 1.00000000E+00
  1 7 8 6.62541122E+01 1.00000000E+07 1.00000000E+00
  1 7 9 5.63627701E+01 1.00000000E+07 1.00000000E+00
  1 8 2 7.84320068E+01 1.00000000E+07 1.00000000E+00
  1 8 3 7.75124817E+01 1.00000000E+07 1.00000000E+00
  1 8 4 7.69895706E+01 1.00000000E+07 1.00000000E+00
  1 8 5 7.59755630E+01 1.00000000E+07 1.00000000E+00
  1 8 6 7.39104767E+01 1.00000000E+07 1.00000000E+00
  1 8 7 7.05628510E+01 1.00000000E+07 1.00000000E+00
  1 8 8 6.58967590E+01 1.00000000E+07 1.00000000E+00
  1 8 9 5.90948601E+01 1.00000000E+07 1.00000000E+00
  1 8 10 5.13807220E+01 1.00000000E+07 1.00000000E+00
  1 9 5 7.13684235E+01 1.00000000E+07 1.00000000E+00
  1 9 6 7.08885422E+01 1.00000000E+07 1.00000000E+00
END period  1

