# File generated by Flopy version 3.10.0.dev3 on 06/15/2025 at 07:23:10.
BEGIN options
  SAVE_FLOWS
  NEWTON  UNDER_RELAXATION
END options

BEGIN packages
  DIS6  model_6.dis  dis
  IC6  model_6.ic  ic
  NPF6  model_6.npf  npf
  STO6  model_6.sto  sto
  RCH6  model_6.rcha  rcha_0
  DRN6  model_6.drn  river
  DRN6  model_6_0.drn  gwd
  OC6  model_6.oc  oc
END packages

