# File generated by Flopy version 3.10.0.dev3 on 06/15/2025 at 07:23:09.
BEGIN options
  auxiliary  depth
  AUXDEPTHNAME  depth
END options

BEGIN dimensions
  MAXBOUND  470
END dimensions

BEGIN period  1
  1 1 1 5.36612396E+01 1.00000000E+07 1.00000000E+00
  1 2 1 5.53139458E+01 1.00000000E+07 1.00000000E+00
  1 2 2 4.98747177E+01 1.00000000E+07 1.00000000E+00
  1 2 3 4.54689713E+01 1.00000000E+07 1.00000000E+00
  1 3 1 5.49760666E+01 1.00000000E+07 1.00000000E+00
  1 3 2 5.12561607E+01 1.00000000E+07 1.00000000E+00
  1 3 3 4.74807777E+01 1.00000000E+07 1.00000000E+00
  1 3 4 4.37490692E+01 1.00000000E+07 1.00000000E+00
  1 3 5 4.03623810E+01 1.00000000E+07 1.00000000E+00
  1 4 1 5.26084366E+01 1.00000000E+07 1.00000000E+00
  1 4 2 4.92160835E+01 1.00000000E+07 1.00000000E+00
  1 4 3 4.61770401E+01 1.00000000E+07 1.00000000E+00
  1 4 4 4.31836586E+01 1.00000000E+07 1.00000000E+00
  1 4 5 3.99754333E+01 1.00000000E+07 1.00000000E+00
  1 6 1 5.13327217E+01 1.00000000E+07 1.00000000E+00
  1 6 2 4.80981522E+01 1.00000000E+07 1.00000000E+00
  1 6 5 4.64277611E+01 1.00000000E+07 1.00000000E+00
  1 6 6 4.59255867E+01 1.00000000E+07 1.00000000E+00
  1 7 4 5.04656258E+01 1.00000000E+07 1.00000000E+00
  1 7 5 5.28250732E+01 1.00000000E+07 1.00000000E+00
  1 7 6 5.32806053E+01 1.00000000E+07 1.00000000E+00
  1 8 2 5.32266808E+01 1.00000000E+07 1.00000000E+00
  1 8 3 5.53886986E+01 1.00000000E+07 1.00000000E+00
  1 8 4 5.74277992E+01 1.00000000E+07 1.00000000E+00
  1 8 5 5.89266052E+01 1.00000000E+07 1.00000000E+00
  1 8 6 5.94702415E+01 1.00000000E+07 1.00000000E+00
  1 9 1 5.93695755E+01 1.00000000E+07 1.00000000E+00
  1 9 2 6.05342941E+01 1.00000000E+07 1.00000000E+00
  1 9 3 6.19331627E+01 1.00000000E+07 1.00000000E+00
  1 9 4 6.32391357E+01 1.00000000E+07 1.00000000E+00
  1 9 5 6.41968460E+01 1.00000000E+07 1.00000000E+00
  1 9 6 6.45609360E+01 1.00000000E+07 1.00000000E+00
  1 10 1 6.49736633E+01 1.00000000E+07 1.00000000E+00
  1 10 2 6.58311234E+01 1.00000000E+07 1.00000000E+00
  1 10 3 6.68168335E+01 1.00000000E+07 1.00000000E+00
  1 10 4 6.77232513E+01 1.00000000E+07 1.00000000E+00
  1 10 5 6.83729935E+01 1.00000000E+07 1.00000000E+00
  1 10 6 6.85513992E+01 1.00000000E+07 1.00000000E+00
  1 11 1 6.86064758E+01 1.00000000E+07 1.00000000E+00
  1 11 2 6.93755188E+01 1.00000000E+07 1.00000000E+00
  1 11 3 7.01872177E+01 1.00000000E+07 1.00000000E+00
  1 11 4 7.08995361E+01 1.00000000E+07 1.00000000E+00
  1 11 5 7.13851318E+01 1.00000000E+07 1.00000000E+00
  1 11 6 7.14355316E+01 1.00000000E+07 1.00000000E+00
  1 12 1 7.05447922E+01 1.00000000E+07 1.00000000E+00
  1 12 2 7.13542786E+01 1.00000000E+07 1.00000000E+00
  1 12 3 7.21498108E+01 1.00000000E+07 1.00000000E+00
  1 12 4 7.28138199E+01 1.00000000E+07 1.00000000E+00
  1 12 5 7.32307281E+01 1.00000000E+07 1.00000000E+00
  1 12 6 7.32114944E+01 1.00000000E+07 1.00000000E+00
  1 13 3 7.35076904E+01 1.00000000E+07 1.00000000E+00
  1 13 4 7.35734711E+01 1.00000000E+07 1.00000000E+00
  1 13 5 7.39240875E+01 1.00000000E+07 1.00000000E+00
  1 13 6 7.38780441E+01 1.00000000E+07 1.00000000E+00
END period  1

