# File generated by Flopy version 3.10.0.dev3 on 06/16/2025 at 06:44:25.
BEGIN options
END options

BEGIN dimensions
  MAXBOUND  88
END dimensions

BEGIN period  1
  1 4 3 3.44444427E+01 1.78565974E+04
  1 4 4 3.18663578E+01 8.81784156E+03
  1 5 2 3.72222214E+01 2.07068764E+04
  1 5 3 3.61549606E+01 1.90928234E+03
  1 5 4 3.16666679E+01 1.02229331E+04
  1 5 5 2.88888893E+01 1.82242890E+04
  1 5 6 2.61111107E+01 1.73931825E+04
  1 5 7 2.33333321E+01 1.66271551E+04
  1 2 1 4.00000000E+01 2.20082768E+04
  1 2 2 3.72222214E+01 2.07335677E+04
  1 2 3 3.44444427E+01 2.01364529E+04
  1 2 4 3.38888893E+01 1.93806921E+02
  1 3 4 3.16666679E+01 2.05747725E+04
  1 3 5 2.94444447E+01 1.60697132E+04
  1 4 5 2.88888893E+01 7.46650125E+03
  1 4 6 2.61111107E+01 2.03380825E+04
  1 4 7 2.47823582E+01 5.76763566E+03
  1 5 7 2.33333321E+01 2.07634884E+03
END period  1

