# File generated by Flopy version 3.10.0.dev3 on 06/15/2025 at 07:23:09.
BEGIN options
  XORIGIN  1.05000000E+05
  YORIGIN       0.00000000
END options

BEGIN dimensions
  NLAY  2
  NROW  13
  NCOL  7
END dimensions

BEGIN griddata
  delr
    INTERNAL  FACTOR  1.0
      5000.00000000    5000.00000000    5000.00000000    5000.00000000    5000.00000000    5000.00000000    5000.00000000
  delc
    INTERNAL  FACTOR  1.0
      5000.00000000    5000.00000000    5000.00000000    5000.00000000    5000.00000000    5000.00000000    5000.00000000    5000.00000000    5000.00000000    5000.00000000    5000.00000000    5000.00000000    5000.00000000
  top
    INTERNAL  FACTOR  1.0
        45.59077835      44.97950363      44.55158234      44.52327728      44.76303482       0.00000000       0.00000000
        40.00000000      37.22222137      34.44444275      33.88888931      36.47253418      38.27091599      38.60053635
         0.00000000      37.66863632      34.64134598      31.66666794      29.44444466      30.80040932      31.95338631
         0.00000000      37.46049500      34.44444275      31.86635780      28.88888931      26.11111069      24.78235817
         0.00000000      37.22222137      36.15496063      31.66666794      28.88888931      26.11111069      23.33333206
         0.00000000       0.00000000      44.97849274      42.73672867      40.36610413      37.95243073      35.49191666
         0.00000000       0.00000000      52.81556320      51.26879883      49.36273956      47.22244263      44.88937759
         0.00000000       0.00000000      59.28887177      58.08128738      56.46199417      54.50263214      52.22443771
         0.00000000       0.00000000      64.50473022      63.47613907      62.02780533      60.18647766      57.94366837
         0.00000000       0.00000000      68.54328156      67.61442566      66.27883911      64.52954865      62.32903290
         0.00000000       0.00000000      71.44788361      70.58512115      69.34431458      67.69616699      65.56447601
         0.00000000       0.00000000      73.23657227      72.42575073      71.28643799      69.78900909      67.82201385
         0.00000000       0.00000000      73.90922546      73.12643433      72.08648682      71.51026917      70.19281006
  botm  LAYERED
    INTERNAL  FACTOR  1.0
          40.59077835      39.97950363      39.55158234      39.52327728      39.76303482       0.00000000       0.00000000
          35.00000000      32.22222137      29.44444275      28.88888931      31.47253418      33.27091599      33.60053635
           0.00000000      32.66863632      29.64134598      26.66666794      24.44444466      25.80040932      26.95338631
           0.00000000      32.46049500      29.44444275      26.86635780      23.88888931      21.11111069      19.78235817
           0.00000000      32.22222137      31.15496063      26.66666794      23.88888931      21.11111069      18.33333206
           0.00000000       0.00000000      39.97849274      37.73672867      35.36610413      32.95243073      30.49191666
           0.00000000       0.00000000      47.81556320      46.26879883      44.36273956      42.22244263      39.88937759
           0.00000000       0.00000000      54.28887177      53.08128738      51.46199417      49.50263214      47.22443771
           0.00000000       0.00000000      59.50473022      58.47613907      57.02780533      55.18647766      52.94366837
           0.00000000       0.00000000      63.54328156      62.61442566      61.27883911      59.52954865      57.32903290
           0.00000000       0.00000000      66.44788361      65.58512115      64.34431458      62.69616699      60.56447601
           0.00000000       0.00000000      68.23657227      67.42575073      66.28643799      64.78900909      62.82201385
           0.00000000       0.00000000      68.90922546      68.12643433      67.08648682      66.51026917      65.19281006
    INTERNAL  FACTOR  1.0
          33.09077835      32.47950363      32.05158234      32.02327728      32.26303482       0.00000000       0.00000000
          27.50000000      24.72222137      21.94444275      21.38888931      23.97253418      25.77091599      26.10053635
           0.00000000      25.16863632      22.14134598      19.16666794      16.94444466      18.30040932      19.45338631
           0.00000000      24.96049500      21.94444275      19.36635780      16.38888931      13.61111069      12.28235817
           0.00000000      24.72222137      23.65496063      19.16666794      16.38888931      13.61111069      10.83333206
           0.00000000       0.00000000      32.47849274      30.23672867      27.86610413      25.45243073      22.99191666
           0.00000000       0.00000000      40.31556320      38.76879883      36.86273956      34.72244263      32.38937759
           0.00000000       0.00000000      46.78887177      45.58128738      43.96199417      42.00263214      39.72443771
           0.00000000       0.00000000      52.00473022      50.97613907      49.52780533      47.68647766      45.44366837
           0.00000000       0.00000000      56.04328156      55.11442566      53.77883911      52.02954865      49.82903290
           0.00000000       0.00000000      58.94788361      58.08512115      56.84431458      55.19616699      53.06447601
           0.00000000       0.00000000      60.73657227      59.92575073      58.78643799      57.28900909      55.32201385
           0.00000000       0.00000000      61.40922546      60.62643433      59.58648682      59.01026917      57.69281006
  idomain
    INTERNAL  FACTOR  1
      1  1  1  1  1  0  0
      1  1  1  1  1  1  1
      0  1  1  1  1  1  1
      0  1  1  1  1  1  1
      0  1  1  1  1  1  1
      0  0  1  1  1  1  1
      0  0  1  1  1  1  1
      0  0  1  1  1  1  1
      0  0  1  1  1  1  1
      0  0  1  1  1  1  1
      0  0  1  1  1  1  1
      0  0  1  1  1  1  1
      0  0  1  1  1  1  0
      1  1  1  1  1  0  0
      1  1  1  1  1  1  1
      0  1  1  1  1  1  1
      0  1  1  1  1  1  1
      0  1  1  1  1  1  1
      0  0  1  1  1  1  1
      0  0  1  1  1  1  1
      0  0  1  1  1  1  1
      0  0  1  1  1  1  1
      0  0  1  1  1  1  1
      0  0  1  1  1  1  1
      0  0  1  1  1  1  1
      0  0  1  1  1  1  0
END griddata

