# File generated by Flopy version 3.10.0.dev3 on 06/15/2025 at 07:23:10.
BEGIN options
END options

BEGIN dimensions
  MAXBOUND  88
END dimensions

BEGIN period  1
  1 9 2 7.33333359E+01 3.10199521E+04
  1 9 3 7.05555573E+01 3.18122023E+04
  1 9 4 7.00000000E+01 8.18127444E+02
  1 6 9 5.38888893E+01 1.40131922E+04
  1 6 10 5.27777786E+01 1.26054452E+04
  1 7 10 5.11111107E+01 3.00084320E+04
END period  1

