# File generated by Flopy version 3.10.0.dev3 on 06/16/2025 at 06:44:25.
BEGIN options
  auxiliary  ANGLDEGX  CDIST
  NEWTON
END options

BEGIN dimensions
  NEXG  18
END dimensions

BEGIN exchangedata
  1 1 1  1 8 4  1    2500.00000000    2500.00000000    5000.00000000      90.00000000    5000.00000000
  2 1 1  2 8 4  1    2500.00000000    2500.00000000    5000.00000000      90.00000000    5000.00000000
  1 1 2  1 8 5  1    2500.00000000    2500.00000000    5000.00000000      90.00000000    5000.00000000
  2 1 2  2 8 5  1    2500.00000000    2500.00000000    5000.00000000      90.00000000    5000.00000000
  1 1 3  1 8 6  1    2500.00000000    2500.00000000    5000.00000000      90.00000000    5000.00000000
  2 1 3  2 8 6  1    2500.00000000    2500.00000000    5000.00000000      90.00000000    5000.00000000
  1 1 4  1 8 7  1    2500.00000000    2500.00000000    5000.00000000      90.00000000    5000.00000000
  2 1 4  2 8 7  1    2500.00000000    2500.00000000    5000.00000000      90.00000000    5000.00000000
  1 1 5  1 8 8  1    2500.00000000    2500.00000000    5000.00000000      90.00000000    5000.00000000
  2 1 5  2 8 8  1    2500.00000000    2500.00000000    5000.00000000      90.00000000    5000.00000000
  1 1 5  1 9 9  1    2500.00000000    2500.00000000    5000.00000000       0.00000000    5000.00000000
  2 1 5  2 9 9  1    2500.00000000    2500.00000000    5000.00000000       0.00000000    5000.00000000
  1 2 6  1 9 9  1    2500.00000000    2500.00000000    5000.00000000      90.00000000    5000.00000000
  2 2 6  2 9 9  1    2500.00000000    2500.00000000    5000.00000000      90.00000000    5000.00000000
  1 2 7  1 9 10  1    2500.00000000    2500.00000000    5000.00000000      90.00000000    5000.00000000
  2 2 7  2 9 10  1    2500.00000000    2500.00000000    5000.00000000      90.00000000    5000.00000000
  1 2 7  1 10 11  1    2500.00000000    2500.00000000    5000.00000000       0.00000000    5000.00000000
  2 2 7  2 10 11  1    2500.00000000    2500.00000000    5000.00000000       0.00000000    5000.00000000
END exchangedata

