# File generated by Flopy version 3.10.0.dev3 on 06/16/2025 at 06:44:25.
BEGIN options
  auxiliary  ANGLDEGX  CDIST
  NEWTON
END options

BEGIN dimensions
  NEXG  30
END dimensions

BEGIN exchangedata
  1 1 1  1 1 4  1    2500.00000000    2500.00000000    5000.00000000     180.00000000    5000.00000000
  2 1 1  2 1 4  1    2500.00000000    2500.00000000    5000.00000000     180.00000000    5000.00000000
  1 2 1  1 2 4  1    2500.00000000    2500.00000000    5000.00000000     180.00000000    5000.00000000
  2 2 1  2 2 4  1    2500.00000000    2500.00000000    5000.00000000     180.00000000    5000.00000000
  1 2 1  1 3 5  1    2500.00000000    2500.00000000    5000.00000000     270.00000000    5000.00000000
  2 2 1  2 3 5  1    2500.00000000    2500.00000000    5000.00000000     270.00000000    5000.00000000
  1 3 2  1 3 5  1    2500.00000000    2500.00000000    5000.00000000     180.00000000    5000.00000000
  2 3 2  2 3 5  1    2500.00000000    2500.00000000    5000.00000000     180.00000000    5000.00000000
  1 4 2  1 4 5  1    2500.00000000    2500.00000000    5000.00000000     180.00000000    5000.00000000
  2 4 2  2 4 5  1    2500.00000000    2500.00000000    5000.00000000     180.00000000    5000.00000000
  1 5 2  1 5 5  1    2500.00000000    2500.00000000    5000.00000000     180.00000000    5000.00000000
  2 5 2  2 5 5  1    2500.00000000    2500.00000000    5000.00000000     180.00000000    5000.00000000
  1 5 2  1 6 6  1    2500.00000000    2500.00000000    5000.00000000     270.00000000    5000.00000000
  2 5 2  2 6 6  1    2500.00000000    2500.00000000    5000.00000000     270.00000000    5000.00000000
  1 6 3  1 6 6  1    2500.00000000    2500.00000000    5000.00000000     180.00000000    5000.00000000
  2 6 3  2 6 6  1    2500.00000000    2500.00000000    5000.00000000     180.00000000    5000.00000000
  1 7 3  1 7 6  1    2500.00000000    2500.00000000    5000.00000000     180.00000000    5000.00000000
  2 7 3  2 7 6  1    2500.00000000    2500.00000000    5000.00000000     180.00000000    5000.00000000
  1 8 3  1 8 6  1    2500.00000000    2500.00000000    5000.00000000     180.00000000    5000.00000000
  2 8 3  2 8 6  1    2500.00000000    2500.00000000    5000.00000000     180.00000000    5000.00000000
  1 9 3  1 9 6  1    2500.00000000    2500.00000000    5000.00000000     180.00000000    5000.00000000
  2 9 3  2 9 6  1    2500.00000000    2500.00000000    5000.00000000     180.00000000    5000.00000000
  1 10 3  1 10 6  1    2500.00000000    2500.00000000    5000.00000000     180.00000000    5000.00000000
  2 10 3  2 10 6  1    2500.00000000    2500.00000000    5000.00000000     180.00000000    5000.00000000
  1 11 3  1 11 6  1    2500.00000000    2500.00000000    5000.00000000     180.00000000    5000.00000000
  2 11 3  2 11 6  1    2500.00000000    2500.00000000    5000.00000000     180.00000000    5000.00000000
  1 12 3  1 12 6  1    2500.00000000    2500.00000000    5000.00000000     180.00000000    5000.00000000
  2 12 3  2 12 6  1    2500.00000000    2500.00000000    5000.00000000     180.00000000    5000.00000000
  1 13 3  1 13 6  1    2500.00000000    2500.00000000    5000.00000000     180.00000000    5000.00000000
  2 13 3  2 13 6  1    2500.00000000    2500.00000000    5000.00000000     180.00000000    5000.00000000
END exchangedata

