# File generated by Flopy version 3.10.0.dev3 on 06/15/2025 at 07:23:09.
BEGIN options
  auxiliary  ANGLDEGX  CDIST
  NEWTON
END options

BEGIN dimensions
  NEXG  18
END dimensions

BEGIN exchangedata
  1 2 8  1 2 1  1    2500.00000000    2500.00000000    5000.00000000       0.00000000    5000.00000000
  2 2 8  2 2 1  1    2500.00000000    2500.00000000    5000.00000000       0.00000000    5000.00000000
  1 3 8  1 3 1  1    2500.00000000    2500.00000000    5000.00000000       0.00000000    5000.00000000
  2 3 8  2 3 1  1    2500.00000000    2500.00000000    5000.00000000       0.00000000    5000.00000000
  1 4 8  1 4 1  1    2500.00000000    2500.00000000    5000.00000000       0.00000000    5000.00000000
  2 4 8  2 4 1  1    2500.00000000    2500.00000000    5000.00000000       0.00000000    5000.00000000
  1 5 8  1 5 1  1    2500.00000000    2500.00000000    5000.00000000       0.00000000    5000.00000000
  2 5 8  2 5 1  1    2500.00000000    2500.00000000    5000.00000000       0.00000000    5000.00000000
  1 6 9  1 5 1  1    2500.00000000    2500.00000000    5000.00000000      90.00000000    5000.00000000
  2 6 9  2 5 1  1    2500.00000000    2500.00000000    5000.00000000      90.00000000    5000.00000000
  1 6 9  1 6 2  1    2500.00000000    2500.00000000    5000.00000000       0.00000000    5000.00000000
  2 6 9  2 6 2  1    2500.00000000    2500.00000000    5000.00000000       0.00000000    5000.00000000
  1 7 9  1 7 2  1    2500.00000000    2500.00000000    5000.00000000       0.00000000    5000.00000000
  2 7 9  2 7 2  1    2500.00000000    2500.00000000    5000.00000000       0.00000000    5000.00000000
  1 8 9  1 8 2  1    2500.00000000    2500.00000000    5000.00000000       0.00000000    5000.00000000
  2 8 9  2 8 2  1    2500.00000000    2500.00000000    5000.00000000       0.00000000    5000.00000000
  1 9 9  1 9 2  1    2500.00000000    2500.00000000    5000.00000000       0.00000000    5000.00000000
  2 9 9  2 9 2  1    2500.00000000    2500.00000000    5000.00000000       0.00000000    5000.00000000
END exchangedata

