# File generated by Flopy version 3.10.0.dev3 on 06/15/2025 at 07:23:09.
BEGIN options
  auxiliary  ANGLDEGX  CDIST
  NEWTON
END options

BEGIN dimensions
  NEXG  14
END dimensions

BEGIN exchangedata
  1 1 4  1 8 7  1    2500.00000000    2500.00000000    5000.00000000      90.00000000    5000.00000000
  2 1 4  2 8 7  1    2500.00000000    2500.00000000    5000.00000000      90.00000000    5000.00000000
  1 1 4  1 9 6  1    2500.00000000    2500.00000000    5000.00000000     180.00000000    5000.00000000
  2 1 4  2 9 6  1    2500.00000000    2500.00000000    5000.00000000     180.00000000    5000.00000000
  1 1 5  1 8 8  1    2500.00000000    2500.00000000    5000.00000000      90.00000000    5000.00000000
  2 1 5  2 8 8  1    2500.00000000    2500.00000000    5000.00000000      90.00000000    5000.00000000
  1 1 6  1 8 9  1    2500.00000000    2500.00000000    5000.00000000      90.00000000    5000.00000000
  2 1 6  2 8 9  1    2500.00000000    2500.00000000    5000.00000000      90.00000000    5000.00000000
  1 2 1  1 9 4  1    2500.00000000    2500.00000000    5000.00000000      90.00000000    5000.00000000
  2 2 1  2 9 4  1    2500.00000000    2500.00000000    5000.00000000      90.00000000    5000.00000000
  1 2 2  1 9 5  1    2500.00000000    2500.00000000    5000.00000000      90.00000000    5000.00000000
  2 2 2  2 9 5  1    2500.00000000    2500.00000000    5000.00000000      90.00000000    5000.00000000
  1 2 3  1 9 6  1    2500.00000000    2500.00000000    5000.00000000      90.00000000    5000.00000000
  2 2 3  2 9 6  1    2500.00000000    2500.00000000    5000.00000000      90.00000000    5000.00000000
END exchangedata

