# File generated by Flopy version 3.10.0.dev3 on 06/16/2025 at 06:44:25.
BEGIN options
  auxiliary  ANGLDEGX  CDIST
  NEWTON
END options

BEGIN dimensions
  NEXG  20
END dimensions

BEGIN exchangedata
  1 3 7  1 2 1  1    2500.00000000    2500.00000000    5000.00000000       0.00000000    5000.00000000
  2 3 7  2 2 1  1    2500.00000000    2500.00000000    5000.00000000       0.00000000    5000.00000000
  1 4 7  1 3 1  1    2500.00000000    2500.00000000    5000.00000000       0.00000000    5000.00000000
  2 4 7  2 3 1  1    2500.00000000    2500.00000000    5000.00000000       0.00000000    5000.00000000
  1 5 7  1 4 1  1    2500.00000000    2500.00000000    5000.00000000       0.00000000    5000.00000000
  2 5 7  2 4 1  1    2500.00000000    2500.00000000    5000.00000000       0.00000000    5000.00000000
  1 6 7  1 5 1  1    2500.00000000    2500.00000000    5000.00000000       0.00000000    5000.00000000
  2 6 7  2 5 1  1    2500.00000000    2500.00000000    5000.00000000       0.00000000    5000.00000000
  1 7 7  1 6 1  1    2500.00000000    2500.00000000    5000.00000000       0.00000000    5000.00000000
  2 7 7  2 6 1  1    2500.00000000    2500.00000000    5000.00000000       0.00000000    5000.00000000
  1 8 7  1 7 1  1    2500.00000000    2500.00000000    5000.00000000       0.00000000    5000.00000000
  2 8 7  2 7 1  1    2500.00000000    2500.00000000    5000.00000000       0.00000000    5000.00000000
  1 9 7  1 8 1  1    2500.00000000    2500.00000000    5000.00000000       0.00000000    5000.00000000
  2 9 7  2 8 1  1    2500.00000000    2500.00000000    5000.00000000       0.00000000    5000.00000000
  1 10 7  1 9 1  1    2500.00000000    2500.00000000    5000.00000000       0.00000000    5000.00000000
  2 10 7  2 9 1  1    2500.00000000    2500.00000000    5000.00000000       0.00000000    5000.00000000
  1 11 7  1 10 1  1    2500.00000000    2500.00000000    5000.00000000       0.00000000    5000.00000000
  2 11 7  2 10 1  1    2500.00000000    2500.00000000    5000.00000000       0.00000000    5000.00000000
  1 12 7  1 11 1  1    2500.00000000    2500.00000000    5000.00000000       0.00000000    5000.00000000
  2 12 7  2 11 1  1    2500.00000000    2500.00000000    5000.00000000       0.00000000    5000.00000000
END exchangedata

