# File generated by Flopy version 3.9.1 on 03/11/2025 at 10:35:51.
BEGIN options
  BUDGET  FILEOUT  gwf-p06-mf6.bud
  HEAD  FILEOUT  gwf-p06-mf6.hds
  HEAD  PRINT_FORMAT  COLUMNS  10  WIDTH  15  DIGITS  6  GENERAL
END options

BEGIN period  1
  SAVE  HEAD  LAST
  SAVE  BUDGET  LAST
  PRINT  HEAD  LAST
  PRINT  BUDGET  LAST
END period  1

