# File generated by Flopy version 3.9.1 on 03/12/2025 at 13:53:28.
BEGIN options
END options

BEGIN sources
  WEL-1  AUX  CONCENTRATION
END sources

