# File generated by Flopy version 3.9.1 on 03/11/2025 at 10:35:51.
BEGIN options
END options

BEGIN griddata
  strt
    CONSTANT       0.00000000
END griddata

