# BAS6 package for MODFLOW-2005 generated by Flopy 3.9.1
FREE
INTERNAL               1     (FREE) -1 #ibound_layer_0                
         1         1         1         1         1         1         1         1         1         1         1         1         1         1         1         1         1         1         1         1
         1         1         1         1         1         1         1         1         1         1         1         1         1         1         1         1         1         1         1         1
         1         1         1         1         1         1         1         1         1         1         1         1         1         1         1         1         1         1         1         1
         1         1         1         1         1         1         1         1         1         1         1         1         1         1         1         1         1         1         1         1
         1         1         1         1         1         1         1         1         1         1         1         1         1         1         1         1         1         1         1         1
         1         1         1         1         1         1         1         1         1         1         1         1         1         1         1         1         1         1         1         1
         1         1         1         1         1         1         1         1         1         1         1         1         1         1         1         1         1         1         1         1
         1         1         1         1         1         1         1         1         1         1         1         1         1         1         1         1         1         1         1         1
         1         1         1         1         0         0         0         1         1         1         1         1         1         1         1         1         1         1         1         1
         1         1         1         1         0         0         0         0         1         1         1         1         1         1         1         1         1         1         1         1
         1         1         1         1         0         0         0         0         1         1         1         1         1         1         1         1         1         1         1         1
         1         1         1         1         0         0         0         0         1         1         1         1         1         1         1         1         1         1         1         1
         1         1         1         1         0         0         0         0         1         1         1         1         1         1         1         1         1         1         1         1
         1         1         1         1         0         0         0         0         1         1         1         1         1         1         1         1         1         1         1         1
         1         1         1         1         0         0         0         0         1         1         1         1         1         1         1         1         1         1         1         1
         1         1         1         1         0         0         0         0         1         1         1         1         1         1         1         1         1         1         1         1
         1         1         1         1         0         0         0         0         1         1         1         1         1         1         1         1         1         1         1         1
         1         1         1         1         0         0         0         0         1         1         1         1         1         1         1         1         1         1         1         1
         1         1         1         1         0         0         0         0         1         1         1         1         1         1         1         1         1         1         1         1
         1         1         1         1         0         0         0         0         1         1         1         1         1         1         1         1         1         1         1         1
         1         1         1         1         0         0         0         0         1         1         1         1         1         1         1         1         1         1         1         1
         1         1         1         1         0         0         1         1         1         1         1         1         1         1         1         1         1         1         1         1
         1         1         1         1         1         0         1         1         1         1         1         1         1         1         1         1         1         1         1         1
         1         1         1         1         1         1         1         1         1         1         1         1         1         1         1         1         1         1         1         1
         1         1         1         1         1         1         1         1         1         1         1         1         1         1         1         1         1         1         1         1
         1         1         1         1         1         1         1         1         1         1         1         1         1         1         1         1         1         1         1         1
         1         1         1         1         1         1         1         1         1         1         1         1         1         1         1         1         1         1         1         1
         1         1         1         1         1         1         1         1         1         1         1         1         1         1         1         1         1         1         1         1
         1         1         1         1         1         1         1         1         1         1         1         1         1         1         1         1         1         1         1         1
         1         1         1         1         1         1         1         1         1         1         1         1         1         1         1         1         1         1         1         1
         1         1         1         1         1         1         1         1         1         1         1         1         1         1         1         1         1         1         1         1
         1         1         1         1         1         1         1         1         1         1         1         1         1         1         1         1         1         1         1         1
         0         1         1         1         1         1         1         1         1         1         1         1         1         1         1         1         1         1         1         1
         0         0         1         1         1         1         1         1         1         1         1         1         1         1         1         1         1         1         1         1
         0         0         0         1         1         1         1         1         1         1         1         1         1         1         1         1         1         1         1         1
         0         0         0         0         1         1         1         1         1         1         1         1         1         1         1         1         1         1         1         0
         0         0         0         0         1         1         1         1         1         1         1         1         1         1         1         1         1         1         1         0
         0         0         0         0         0         1         1         1         1         1         1         1         1         1         1         1         1         1         0         0
         0         0         0         0         0         1         1         1         1         1         1         1         1         1         1         1         1         0         0         0
         0         0         0         0         0        -1        -1        -1        -1        -1        -1        -1        -1        -1        -1         0         0         0         0         0
     999.0
INTERNAL               1     (FREE) -1 #strt_layer_0                  
   4.500000E+01   4.500000E+01   4.500000E+01   4.500000E+01   4.500000E+01   4.500000E+01   4.500000E+01   4.500000E+01   4.500000E+01   4.500000E+01   4.500000E+01   4.500000E+01   4.500000E+01   4.500000E+01   4.500000E+01   4.500000E+01   4.500000E+01   4.500000E+01   4.500000E+01   4.500000E+01
   4.500000E+01   4.500000E+01   4.500000E+01   4.500000E+01   4.500000E+01   4.500000E+01   4.500000E+01   4.500000E+01   4.500000E+01   4.500000E+01   4.500000E+01   4.500000E+01   4.500000E+01   4.500000E+01   4.500000E+01   4.500000E+01   4.500000E+01   4.500000E+01   4.500000E+01   4.500000E+01
   4.500000E+01   4.500000E+01   4.500000E+01   4.500000E+01   4.500000E+01   4.500000E+01   4.500000E+01   4.500000E+01   4.500000E+01   4.500000E+01   4.500000E+01   4.500000E+01   4.500000E+01   4.500000E+01   4.500000E+01   4.500000E+01   4.500000E+01   4.500000E+01   4.500000E+01   4.500000E+01
   4.500000E+01   4.500000E+01   4.500000E+01   4.500000E+01   4.500000E+01   4.500000E+01   4.500000E+01   4.500000E+01   4.500000E+01   4.500000E+01   4.500000E+01   4.500000E+01   4.500000E+01   4.500000E+01   4.500000E+01   4.500000E+01   4.500000E+01   4.500000E+01   4.500000E+01   4.500000E+01
   4.500000E+01   4.500000E+01   4.500000E+01   4.500000E+01   4.500000E+01   4.500000E+01   4.500000E+01   4.500000E+01   4.500000E+01   4.500000E+01   4.500000E+01   4.500000E+01   4.500000E+01   4.500000E+01   4.500000E+01   4.500000E+01   4.500000E+01   4.500000E+01   4.500000E+01   4.500000E+01
   4.500000E+01   4.500000E+01   4.500000E+01   4.500000E+01   4.500000E+01   4.500000E+01   4.500000E+01   4.500000E+01   4.500000E+01   4.500000E+01   4.500000E+01   4.500000E+01   4.500000E+01   4.500000E+01   4.500000E+01   4.500000E+01   4.500000E+01   4.500000E+01   4.500000E+01   4.500000E+01
   4.500000E+01   4.500000E+01   4.500000E+01   4.500000E+01   4.500000E+01   4.500000E+01   4.500000E+01   4.500000E+01   4.500000E+01   4.500000E+01   4.500000E+01   4.500000E+01   4.500000E+01   4.500000E+01   4.500000E+01   4.500000E+01   4.500000E+01   4.500000E+01   4.500000E+01   4.500000E+01
   4.500000E+01   4.500000E+01   4.500000E+01   4.500000E+01   4.500000E+01   4.500000E+01   4.500000E+01   4.500000E+01   4.500000E+01   4.500000E+01   4.500000E+01   4.500000E+01   4.500000E+01   4.500000E+01   4.500000E+01   4.500000E+01   4.500000E+01   4.500000E+01   4.500000E+01   4.500000E+01
   4.500000E+01   4.500000E+01   4.500000E+01   4.500000E+01   4.500000E+01   4.500000E+01   4.500000E+01   4.500000E+01   4.500000E+01   4.500000E+01   4.500000E+01   4.500000E+01   4.500000E+01   4.500000E+01   4.500000E+01   4.500000E+01   4.500000E+01   4.500000E+01   4.500000E+01   4.500000E+01
   4.500000E+01   4.500000E+01   4.500000E+01   4.500000E+01   4.500000E+01   4.500000E+01   4.500000E+01   4.500000E+01   4.500000E+01   4.500000E+01   4.500000E+01   4.500000E+01   4.500000E+01   4.500000E+01   4.500000E+01   4.500000E+01   4.500000E+01   4.500000E+01   4.500000E+01   4.500000E+01
   4.500000E+01   4.500000E+01   4.500000E+01   4.500000E+01   4.500000E+01   4.500000E+01   4.500000E+01   4.500000E+01   4.500000E+01   4.500000E+01   4.500000E+01   4.500000E+01   4.500000E+01   4.500000E+01   4.500000E+01   4.500000E+01   4.500000E+01   4.500000E+01   4.500000E+01   4.500000E+01
   4.500000E+01   4.500000E+01   4.500000E+01   4.500000E+01   4.500000E+01   4.500000E+01   4.500000E+01   4.500000E+01   4.500000E+01   4.500000E+01   4.500000E+01   4.500000E+01   4.500000E+01   4.500000E+01   4.500000E+01   4.500000E+01   4.500000E+01   4.500000E+01   4.500000E+01   4.500000E+01
   4.500000E+01   4.500000E+01   4.500000E+01   4.500000E+01   4.500000E+01   4.500000E+01   4.500000E+01   4.500000E+01   4.500000E+01   4.500000E+01   4.500000E+01   4.500000E+01   4.500000E+01   4.500000E+01   4.500000E+01   4.500000E+01   4.500000E+01   4.500000E+01   4.500000E+01   4.500000E+01
   4.500000E+01   4.500000E+01   4.500000E+01   4.500000E+01   4.500000E+01   4.500000E+01   4.500000E+01   4.500000E+01   4.500000E+01   4.500000E+01   4.500000E+01   4.500000E+01   4.500000E+01   4.500000E+01   4.500000E+01   4.500000E+01   4.500000E+01   4.500000E+01   4.500000E+01   4.500000E+01
   4.500000E+01   4.500000E+01   4.500000E+01   4.500000E+01   4.500000E+01   4.500000E+01   4.500000E+01   4.500000E+01   4.500000E+01   4.500000E+01   4.500000E+01   4.500000E+01   4.500000E+01   4.500000E+01   4.500000E+01   4.500000E+01   4.500000E+01   4.500000E+01   4.500000E+01   4.500000E+01
   4.500000E+01   4.500000E+01   4.500000E+01   4.500000E+01   4.500000E+01   4.500000E+01   4.500000E+01   4.500000E+01   4.500000E+01   4.500000E+01   4.500000E+01   4.500000E+01   4.500000E+01   4.500000E+01   4.500000E+01   4.500000E+01   4.500000E+01   4.500000E+01   4.500000E+01   4.500000E+01
   4.500000E+01   4.500000E+01   4.500000E+01   4.500000E+01   4.500000E+01   4.500000E+01   4.500000E+01   4.500000E+01   4.500000E+01   4.500000E+01   4.500000E+01   4.500000E+01   4.500000E+01   4.500000E+01   4.500000E+01   4.500000E+01   4.500000E+01   4.500000E+01   4.500000E+01   4.500000E+01
   4.500000E+01   4.500000E+01   4.500000E+01   4.500000E+01   4.500000E+01   4.500000E+01   4.500000E+01   4.500000E+01   4.500000E+01   4.500000E+01   4.500000E+01   4.500000E+01   4.500000E+01   4.500000E+01   4.500000E+01   4.500000E+01   4.500000E+01   4.500000E+01   4.500000E+01   4.500000E+01
   4.500000E+01   4.500000E+01   4.500000E+01   4.500000E+01   4.500000E+01   4.500000E+01   4.500000E+01   4.500000E+01   4.500000E+01   4.500000E+01   4.500000E+01   4.500000E+01   4.500000E+01   4.500000E+01   4.500000E+01   4.500000E+01   4.500000E+01   4.500000E+01   4.500000E+01   4.500000E+01
   4.500000E+01   4.500000E+01   4.500000E+01   4.500000E+01   4.500000E+01   4.500000E+01   4.500000E+01   4.500000E+01   4.500000E+01   4.500000E+01   4.500000E+01   4.500000E+01   4.500000E+01   4.500000E+01   4.500000E+01   4.500000E+01   4.500000E+01   4.500000E+01   4.500000E+01   4.500000E+01
   4.500000E+01   4.500000E+01   4.500000E+01   4.500000E+01   4.500000E+01   4.500000E+01   4.500000E+01   4.500000E+01   4.500000E+01   4.500000E+01   4.500000E+01   4.500000E+01   4.500000E+01   4.500000E+01   4.500000E+01   4.500000E+01   4.500000E+01   4.500000E+01   4.500000E+01   4.500000E+01
   4.500000E+01   4.500000E+01   4.500000E+01   4.500000E+01   4.500000E+01   4.500000E+01   4.500000E+01   4.500000E+01   4.500000E+01   4.500000E+01   4.500000E+01   4.500000E+01   4.500000E+01   4.500000E+01   4.500000E+01   4.500000E+01   4.500000E+01   4.500000E+01   4.500000E+01   4.500000E+01
   4.500000E+01   4.500000E+01   4.500000E+01   4.500000E+01   4.500000E+01   4.500000E+01   4.500000E+01   4.500000E+01   4.500000E+01   4.500000E+01   4.500000E+01   4.500000E+01   4.500000E+01   4.500000E+01   4.500000E+01   4.500000E+01   4.500000E+01   4.500000E+01   4.500000E+01   4.500000E+01
   4.500000E+01   4.500000E+01   4.500000E+01   4.500000E+01   4.500000E+01   4.500000E+01   4.500000E+01   4.500000E+01   4.500000E+01   4.500000E+01   4.500000E+01   4.500000E+01   4.500000E+01   4.500000E+01   4.500000E+01   4.500000E+01   4.500000E+01   4.500000E+01   4.500000E+01   4.500000E+01
   4.500000E+01   4.500000E+01   4.500000E+01   4.500000E+01   4.500000E+01   4.500000E+01   4.500000E+01   4.500000E+01   4.500000E+01   4.500000E+01   4.500000E+01   4.500000E+01   4.500000E+01   4.500000E+01   4.500000E+01   4.500000E+01   4.500000E+01   4.500000E+01   4.500000E+01   4.500000E+01
   4.500000E+01   4.500000E+01   4.500000E+01   4.500000E+01   4.500000E+01   4.500000E+01   4.500000E+01   4.500000E+01   4.500000E+01   4.500000E+01   4.500000E+01   4.500000E+01   4.500000E+01   4.500000E+01   4.500000E+01   4.500000E+01   4.500000E+01   4.500000E+01   4.500000E+01   4.500000E+01
   4.500000E+01   4.500000E+01   4.500000E+01   4.500000E+01   4.500000E+01   4.500000E+01   4.500000E+01   4.500000E+01   4.500000E+01   4.500000E+01   4.500000E+01   4.500000E+01   4.500000E+01   4.500000E+01   4.500000E+01   4.500000E+01   4.500000E+01   4.500000E+01   4.500000E+01   4.500000E+01
   4.500000E+01   4.500000E+01   4.500000E+01   4.500000E+01   4.500000E+01   4.500000E+01   4.500000E+01   4.500000E+01   4.500000E+01   4.500000E+01   4.500000E+01   4.500000E+01   4.500000E+01   4.500000E+01   4.500000E+01   4.500000E+01   4.500000E+01   4.500000E+01   4.500000E+01   4.500000E+01
   4.500000E+01   4.500000E+01   4.500000E+01   4.500000E+01   4.500000E+01   4.500000E+01   4.500000E+01   4.500000E+01   4.500000E+01   4.500000E+01   4.500000E+01   4.500000E+01   4.500000E+01   4.500000E+01   4.500000E+01   4.500000E+01   4.500000E+01   4.500000E+01   4.500000E+01   4.500000E+01
   4.500000E+01   4.500000E+01   4.500000E+01   4.500000E+01   4.500000E+01   4.500000E+01   4.500000E+01   4.500000E+01   4.500000E+01   4.500000E+01   4.500000E+01   4.500000E+01   4.500000E+01   4.500000E+01   4.500000E+01   4.500000E+01   4.500000E+01   4.500000E+01   4.500000E+01   4.500000E+01
   4.500000E+01   4.500000E+01   4.500000E+01   4.500000E+01   4.500000E+01   4.500000E+01   4.500000E+01   4.500000E+01   4.500000E+01   4.500000E+01   4.500000E+01   4.500000E+01   4.500000E+01   4.500000E+01   4.500000E+01   4.500000E+01   4.500000E+01   4.500000E+01   4.500000E+01   4.500000E+01
   4.500000E+01   4.500000E+01   4.500000E+01   4.500000E+01   4.500000E+01   4.500000E+01   4.500000E+01   4.500000E+01   4.500000E+01   4.500000E+01   4.500000E+01   4.500000E+01   4.500000E+01   4.500000E+01   4.500000E+01   4.500000E+01   4.500000E+01   4.500000E+01   4.500000E+01   4.500000E+01
   4.500000E+01   4.500000E+01   4.500000E+01   4.500000E+01   4.500000E+01   4.500000E+01   4.500000E+01   4.500000E+01   4.500000E+01   4.500000E+01   4.500000E+01   4.500000E+01   4.500000E+01   4.500000E+01   4.500000E+01   4.500000E+01   4.500000E+01   4.500000E+01   4.500000E+01   4.500000E+01
   4.500000E+01   4.500000E+01   4.500000E+01   4.500000E+01   4.500000E+01   4.500000E+01   4.500000E+01   4.500000E+01   4.500000E+01   4.500000E+01   4.500000E+01   4.500000E+01   4.500000E+01   4.500000E+01   4.500000E+01   4.500000E+01   4.500000E+01   4.500000E+01   4.500000E+01   4.500000E+01
   4.500000E+01   4.500000E+01   4.500000E+01   4.500000E+01   4.500000E+01   4.500000E+01   4.500000E+01   4.500000E+01   4.500000E+01   4.500000E+01   4.500000E+01   4.500000E+01   4.500000E+01   4.500000E+01   4.500000E+01   4.500000E+01   4.500000E+01   4.500000E+01   4.500000E+01   4.500000E+01
   4.500000E+01   4.500000E+01   4.500000E+01   4.500000E+01   4.500000E+01   4.500000E+01   4.500000E+01   4.500000E+01   4.500000E+01   4.500000E+01   4.500000E+01   4.500000E+01   4.500000E+01   4.500000E+01   4.500000E+01   4.500000E+01   4.500000E+01   4.500000E+01   4.500000E+01   4.500000E+01
   4.500000E+01   4.500000E+01   4.500000E+01   4.500000E+01   4.500000E+01   4.500000E+01   4.500000E+01   4.500000E+01   4.500000E+01   4.500000E+01   4.500000E+01   4.500000E+01   4.500000E+01   4.500000E+01   4.500000E+01   4.500000E+01   4.500000E+01   4.500000E+01   4.500000E+01   4.500000E+01
   4.500000E+01   4.500000E+01   4.500000E+01   4.500000E+01   4.500000E+01   4.500000E+01   4.500000E+01   4.500000E+01   4.500000E+01   4.500000E+01   4.500000E+01   4.500000E+01   4.500000E+01   4.500000E+01   4.500000E+01   4.500000E+01   4.500000E+01   4.500000E+01   4.500000E+01   4.500000E+01
   4.500000E+01   4.500000E+01   4.500000E+01   4.500000E+01   4.500000E+01   4.500000E+01   4.500000E+01   4.500000E+01   4.500000E+01   4.500000E+01   4.500000E+01   4.500000E+01   4.500000E+01   4.500000E+01   4.500000E+01   4.500000E+01   4.500000E+01   4.500000E+01   4.500000E+01   4.500000E+01
   4.500000E+01   4.500000E+01   4.500000E+01   4.500000E+01   4.500000E+01   1.690000E+01   1.640000E+01   1.610000E+01   1.560000E+01   1.510000E+01   1.400000E+01   1.300000E+01   1.250000E+01   1.200000E+01   1.140000E+01   4.500000E+01   4.500000E+01   4.500000E+01   4.500000E+01   4.500000E+01
