# Name file for MODPATH, generated by Flopy version 3.9.1.
MPBAS  86 freybergmp.mpbas
DIS  29 freyberg.dis
HEAD  88 freyberg.hds
BUDGET  89 freyberg.cbc
