# WEL package for MODFLOW-2005 generated by Flopy 3.9.1
         6        50  AUX IFACE
         6         0 # stress period 1
         1         9        16         -0.0082             0.0
         1        11        13         -0.0041             0.0
         1        20        14         -0.0039             0.0
         1        26        10        -0.00083             0.0
         1        29         6        -0.00072             0.0
         1        34        12         -0.0043             0.0
