# File generated by Flopy version 3.9.1 on 02/12/2025 at 11:15:49.
BEGIN options
END options

BEGIN sources
  
END sources

