# File generated by Flopy version 3.9.1 on 02/12/2025 at 11:15:49.
BEGIN options
END options

BEGIN dimensions
  MAXBOUND  1
END dimensions

BEGIN period  1
  1 1 1       1.00000000
END period  1

