# File generated by Flopy version 3.8.2 on 01/13/2025 at 15:52:19.
BEGIN options
END options

BEGIN timing
  TDIS6  B_model.tdis
END timing

BEGIN models
  gwf6  B_model.nam  B_model
END models

BEGIN exchanges
END exchanges

