# File generated by Flopy version 3.8.2 on 01/28/2025 at 15:34:38.
BEGIN options
  DIGITS  9
  PRINT_INPUT
END options

BEGIN continuous  FILEOUT  ghb.csv
  GHB1  GHB  GHB1
  GHB1  GHB  GHB1
  GHB1  GHB  GHB1
  GHB1  GHB  GHB1
  GHB1  GHB  GHB1
  GHB1  GHB  GHB1
  GHB1  GHB  GHB1
  GHB1  GHB  GHB1
  GHB1  GHB  GHB1
  GHB1  GHB  GHB1
  GHB1  GHB  GHB1
  GHB1  GHB  GHB1
  GHB1  GHB  GHB1
  GHB1  GHB  GHB1
  GHB1  GHB  GHB1
  GHB1  GHB  GHB1
  GHB1  GHB  GHB1
  GHB1  GHB  GHB1
  GHB1  GHB  GHB1
  GHB1  GHB  GHB1
  GHB1  GHB  GHB1
  GHB1  GHB  GHB1
  GHB1  GHB  GHB1
  GHB1  GHB  GHB1
  GHB1  GHB  GHB1
  GHB1  GHB  GHB1
  GHB1  GHB  GHB1
  GHB1  GHB  GHB1
  GHB1  GHB  GHB1
  GHB1  GHB  GHB1
  GHB1  GHB  GHB1
  GHB1  GHB  GHB1
  GHB1  GHB  GHB1
  GHB1  GHB  GHB1
  GHB1  GHB  GHB1
  GHB1  GHB  GHB1
  GHB1  GHB  GHB1
  GHB1  GHB  GHB1
  GHB1  GHB  GHB1
  GHB1  GHB  GHB1
  GHB1  GHB  GHB1
  GHB1  GHB  GHB1
  GHB1  GHB  GHB1
  GHB1  GHB  GHB1
  GHB1  GHB  GHB1
  GHB1  GHB  GHB1
  GHB1  GHB  GHB1
  GHB1  GHB  GHB1
  GHB1  GHB  GHB1
  GHB1  GHB  GHB1
  GHB1  GHB  GHB1
  GHB1  GHB  GHB1
  GHB1  GHB  GHB1
  GHB1  GHB  GHB1
  GHB1  GHB  GHB1
  GHB1  GHB  GHB1
  GHB1  GHB  GHB1
  GHB1  GHB  GHB1
  GHB1  GHB  GHB1
  GHB1  GHB  GHB1
  GHB1  GHB  GHB1
  GHB1  GHB  GHB1
  GHB1  GHB  GHB1
  GHB1  GHB  GHB1
  GHB1  GHB  GHB1
  GHB1  GHB  GHB1
  GHB1  GHB  GHB1
  GHB1  GHB  GHB1
  GHB1  GHB  GHB1
  GHB1  GHB  GHB1
  GHB1  GHB  GHB1
  GHB1  GHB  GHB1
  GHB1  GHB  GHB1
  GHB1  GHB  GHB1
  GHB1  GHB  GHB1
  GHB1  GHB  GHB1
  GHB1  GHB  GHB1
  GHB1  GHB  GHB1
  GHB1  GHB  GHB1
  GHB1  GHB  GHB1
  GHB1  GHB  GHB1
  GHB1  GHB  GHB1
  GHB1  GHB  GHB1
  GHB1  GHB  GHB1
  GHB1  GHB  GHB1
  GHB1  GHB  GHB1
  GHB1  GHB  GHB1
  GHB1  GHB  GHB1
  GHB1  GHB  GHB1
  GHB1  GHB  GHB1
  GHB1  GHB  GHB1
  GHB1  GHB  GHB1
  GHB1  GHB  GHB1
  GHB1  GHB  GHB1
  GHB1  GHB  GHB1
  GHB1  GHB  GHB1
  GHB1  GHB  GHB1
  GHB1  GHB  GHB1
  GHB1  GHB  GHB1
  GHB1  GHB  GHB1
  GHB1  GHB  GHB1
  GHB1  GHB  GHB1
  GHB1  GHB  GHB1
  GHB1  GHB  GHB1
  GHB1  GHB  GHB1
  GHB1  GHB  GHB1
  GHB1  GHB  GHB1
  GHB1  GHB  GHB1
  GHB1  GHB  GHB1
  GHB1  GHB  GHB1
  GHB1  GHB  GHB1
  GHB1  GHB  GHB1
  GHB1  GHB  GHB1
  GHB1  GHB  GHB1
  GHB1  GHB  GHB1
  GHB1  GHB  GHB1
  GHB1  GHB  GHB1
  GHB1  GHB  GHB1
  GHB1  GHB  GHB1
  GHB1  GHB  GHB1
  GHB1  GHB  GHB1
  GHB1  GHB  GHB1
  GHB1  GHB  GHB1
  GHB1  GHB  GHB1
  GHB1  GHB  GHB1
  GHB1  GHB  GHB1
  GHB1  GHB  GHB1
  GHB1  GHB  GHB1
  GHB1  GHB  GHB1
  GHB1  GHB  GHB1
  GHB1  GHB  GHB1
  GHB1  GHB  GHB1
  GHB1  GHB  GHB1
  GHB1  GHB  GHB1
  GHB1  GHB  GHB1
  GHB1  GHB  GHB1
  GHB1  GHB  GHB1
  GHB1  GHB  GHB1
  GHB1  GHB  GHB1
  GHB1  GHB  GHB1
  GHB1  GHB  GHB1
  GHB1  GHB  GHB1
  GHB1  GHB  GHB1
  GHB1  GHB  GHB1
  GHB1  GHB  GHB1
  GHB1  GHB  GHB1
  GHB1  GHB  GHB1
  GHB1  GHB  GHB1
  GHB1  GHB  GHB1
  GHB1  GHB  GHB1
  GHB1  GHB  GHB1
  GHB1  GHB  GHB1
  GHB1  GHB  GHB1
  GHB1  GHB  GHB1
  GHB1  GHB  GHB1
  GHB1  GHB  GHB1
  GHB1  GHB  GHB1
  GHB1  GHB  GHB1
  GHB1  GHB  GHB1
  GHB1  GHB  GHB1
  GHB1  GHB  GHB1
  GHB1  GHB  GHB1
  GHB1  GHB  GHB1
  GHB1  GHB  GHB1
  GHB1  GHB  GHB1
  GHB1  GHB  GHB1
  GHB1  GHB  GHB1
  GHB1  GHB  GHB1
  GHB1  GHB  GHB1
  GHB1  GHB  GHB1
  GHB1  GHB  GHB1
  GHB1  GHB  GHB1
  GHB1  GHB  GHB1
  GHB1  GHB  GHB1
  GHB1  GHB  GHB1
  GHB1  GHB  GHB1
  GHB1  GHB  GHB1
  GHB1  GHB  GHB1
  GHB1  GHB  GHB1
  GHB1  GHB  GHB1
  GHB1  GHB  GHB1
  GHB1  GHB  GHB1
  GHB1  GHB  GHB1
  GHB1  GHB  GHB1
  GHB1  GHB  GHB1
  GHB1  GHB  GHB1
  GHB1  GHB  GHB1
  GHB1  GHB  GHB1
  GHB1  GHB  GHB1
  GHB1  GHB  GHB1
  GHB1  GHB  GHB1
  GHB1  GHB  GHB1
  GHB1  GHB  GHB1
  GHB1  GHB  GHB1
  GHB1  GHB  GHB1
  GHB1  GHB  GHB1
  GHB1  GHB  GHB1
  GHB1  GHB  GHB1
  GHB1  GHB  GHB1
  GHB1  GHB  GHB1
  GHB1  GHB  GHB1
  GHB1  GHB  GHB1
  GHB1  GHB  GHB1
  GHB1  GHB  GHB1
  GHB1  GHB  GHB1
  GHB1  GHB  GHB1
  GHB1  GHB  GHB1
  GHB1  GHB  GHB1
  GHB1  GHB  GHB1
  GHB1  GHB  GHB1
  GHB1  GHB  GHB1
  GHB1  GHB  GHB1
  GHB1  GHB  GHB1
  GHB1  GHB  GHB1
  GHB1  GHB  GHB1
  GHB1  GHB  GHB1
  GHB1  GHB  GHB1
  GHB1  GHB  GHB1
  GHB1  GHB  GHB1
  GHB1  GHB  GHB1
  GHB1  GHB  GHB1
  GHB1  GHB  GHB1
  GHB1  GHB  GHB1
  GHB1  GHB  GHB1
  GHB1  GHB  GHB1
  GHB1  GHB  GHB1
  GHB1  GHB  GHB1
  GHB1  GHB  GHB1
  GHB1  GHB  GHB1
  GHB1  GHB  GHB1
  GHB1  GHB  GHB1
  GHB1  GHB  GHB1
  GHB1  GHB  GHB1
  GHB1  GHB  GHB1
  GHB1  GHB  GHB1
  GHB1  GHB  GHB1
  GHB1  GHB  GHB1
  GHB1  GHB  GHB1
  GHB1  GHB  GHB1
  GHB1  GHB  GHB1
  GHB1  GHB  GHB1
  GHB1  GHB  GHB1
  GHB1  GHB  GHB1
  GHB1  GHB  GHB1
  GHB1  GHB  GHB1
  GHB1  GHB  GHB1
  GHB1  GHB  GHB1
  GHB1  GHB  GHB1
  GHB1  GHB  GHB1
  GHB1  GHB  GHB1
  GHB1  GHB  GHB1
  GHB1  GHB  GHB1
  GHB1  GHB  GHB1
  GHB1  GHB  GHB1
  GHB1  GHB  GHB1
  GHB1  GHB  GHB1
  GHB1  GHB  GHB1
  GHB1  GHB  GHB1
  GHB1  GHB  GHB1
  GHB1  GHB  GHB1
  GHB1  GHB  GHB1
  GHB1  GHB  GHB1
  GHB1  GHB  GHB1
  GHB1  GHB  GHB1
  GHB1  GHB  GHB1
  GHB1  GHB  GHB1
  GHB1  GHB  GHB1
  GHB1  GHB  GHB1
  GHB1  GHB  GHB1
  GHB1  GHB  GHB1
  GHB1  GHB  GHB1
  GHB1  GHB  GHB1
  GHB1  GHB  GHB1
  GHB1  GHB  GHB1
  GHB1  GHB  GHB1
  GHB1  GHB  GHB1
  GHB1  GHB  GHB1
  GHB1  GHB  GHB1
  GHB1  GHB  GHB1
  GHB1  GHB  GHB1
  GHB1  GHB  GHB1
  GHB1  GHB  GHB1
  GHB1  GHB  GHB1
  GHB1  GHB  GHB1
  GHB1  GHB  GHB1
  GHB1  GHB  GHB1
  GHB1  GHB  GHB1
  GHB1  GHB  GHB1
  GHB1  GHB  GHB1
  GHB1  GHB  GHB1
  GHB1  GHB  GHB1
  GHB1  GHB  GHB1
  GHB1  GHB  GHB1
  GHB1  GHB  GHB1
  GHB1  GHB  GHB1
  GHB1  GHB  GHB1
  GHB1  GHB  GHB1
  GHB1  GHB  GHB1
  GHB1  GHB  GHB1
  GHB1  GHB  GHB1
  GHB1  GHB  GHB1
  GHB1  GHB  GHB1
  GHB1  GHB  GHB1
  GHB1  GHB  GHB1
  GHB1  GHB  GHB1
  GHB1  GHB  GHB1
  GHB1  GHB  GHB1
  GHB1  GHB  GHB1
  GHB1  GHB  GHB1
  GHB1  GHB  GHB1
  GHB1  GHB  GHB1
  GHB1  GHB  GHB1
  GHB1  GHB  GHB1
  GHB1  GHB  GHB1
  GHB1  GHB  GHB1
  GHB1  GHB  GHB1
  GHB1  GHB  GHB1
  GHB1  GHB  GHB1
  GHB1  GHB  GHB1
  GHB1  GHB  GHB1
  GHB1  GHB  GHB1
  GHB1  GHB  GHB1
  GHB1  GHB  GHB1
  GHB1  GHB  GHB1
  GHB1  GHB  GHB1
  GHB1  GHB  GHB1
  GHB1  GHB  GHB1
  GHB1  GHB  GHB1
  GHB1  GHB  GHB1
  GHB1  GHB  GHB1
  GHB1  GHB  GHB1
  GHB1  GHB  GHB1
  GHB1  GHB  GHB1
  GHB1  GHB  GHB1
  GHB1  GHB  GHB1
  GHB1  GHB  GHB1
  GHB1  GHB  GHB1
  GHB1  GHB  GHB1
  GHB1  GHB  GHB1
  GHB1  GHB  GHB1
  GHB1  GHB  GHB1
  GHB1  GHB  GHB1
  GHB1  GHB  GHB1
  GHB1  GHB  GHB1
  GHB1  GHB  GHB1
  GHB1  GHB  GHB1
  GHB1  GHB  GHB1
  GHB1  GHB  GHB1
  GHB1  GHB  GHB1
  GHB1  GHB  GHB1
  GHB1  GHB  GHB1
  GHB1  GHB  GHB1
  GHB1  GHB  GHB1
  GHB1  GHB  GHB1
  GHB1  GHB  GHB1
  GHB1  GHB  GHB1
  GHB1  GHB  GHB1
  GHB1  GHB  GHB1
  GHB1  GHB  GHB1
  GHB1  GHB  GHB1
  GHB1  GHB  GHB1
  GHB1  GHB  GHB1
  GHB1  GHB  GHB1
  GHB1  GHB  GHB1
  GHB1  GHB  GHB1
  GHB1  GHB  GHB1
  GHB1  GHB  GHB1
  GHB1  GHB  GHB1
  GHB1  GHB  GHB1
  GHB1  GHB  GHB1
  GHB1  GHB  GHB1
  GHB1  GHB  GHB1
  GHB1  GHB  GHB1
  GHB1  GHB  GHB1
  GHB1  GHB  GHB1
  GHB1  GHB  GHB1
  GHB1  GHB  GHB1
  GHB1  GHB  GHB1
  GHB1  GHB  GHB1
  GHB1  GHB  GHB1
  GHB1  GHB  GHB1
  GHB1  GHB  GHB1
  GHB1  GHB  GHB1
  GHB1  GHB  GHB1
  GHB1  GHB  GHB1
  GHB1  GHB  GHB1
  GHB1  GHB  GHB1
  GHB1  GHB  GHB1
  GHB1  GHB  GHB1
  GHB1  GHB  GHB1
  GHB1  GHB  GHB1
  GHB1  GHB  GHB1
  GHB1  GHB  GHB1
  GHB1  GHB  GHB1
  GHB1  GHB  GHB1
  GHB1  GHB  GHB1
  GHB1  GHB  GHB1
  GHB1  GHB  GHB1
  GHB1  GHB  GHB1
  GHB1  GHB  GHB1
  GHB1  GHB  GHB1
  GHB1  GHB  GHB1
  GHB1  GHB  GHB1
  GHB1  GHB  GHB1
END continuous  FILEOUT  ghb.csv

