# File generated by Flopy version 3.9.1 on 02/19/2025 at 14:05:00.
BEGIN options
  SAVE_FLOWS
END options

BEGIN packages
  NPF6  gwf-p04-mf6.npf  npf
  DIS6  gwf-p04-mf6.dis  dis
  STO6  gwf-p04-mf6.sto  sto
  IC6  gwf-p04-mf6.ic  ic
  CHD6  gwf-p04-mf6.chd  chd-1
  WEL6  gwf-p04-mf6.wel  wel-1
  OC6  gwf-p04-mf6.oc  oc
END packages

