# File generated by Flopy version 3.9.1 on 02/19/2025 at 14:05:00.
BEGIN options
  BUDGET  FILEOUT  gwf-p04-mf6.bud
  HEAD  FILEOUT  gwf-p04-mf6.hds
  HEAD  PRINT_FORMAT  COLUMNS  10  WIDTH  15  DIGITS  6  GENERAL
END options

BEGIN period  1
  SAVE  HEAD  LAST
  SAVE  BUDGET  LAST
  PRINT  HEAD  LAST
  PRINT  BUDGET  LAST
END period  1

