# File generated by Flopy version 3.9.1 on 02/19/2025 at 14:05:00.
BEGIN options
  SCHEME  upstream
END options

