# File generated by Flopy version 3.9.1 on 02/19/2025 at 14:05:00.
BEGIN options
  XT3D_OFF
END options

BEGIN griddata
  alh
    CONSTANT       2.00000000
  ath1
    CONSTANT       0.20000000
END griddata

