# File generated by Flopy version 3.9.1 on 05/17/2025 at 11:42:02.
BEGIN options
END options

BEGIN dimensions
  MAXBOUND  1
END dimensions

BEGIN period  1
  1 26 26 -1
END period  1

