# File generated by Flopy version 3.9.1 on 05/12/2025 at 14:40:10.
BEGIN options
  BUDGET  FILEOUT  ex-gwf-hani_b.cbc
  HEAD  FILEOUT  ex-gwf-hani_b.hds
END options

BEGIN period  1
  SAVE  HEAD  ALL
  SAVE  BUDGET  ALL
END period  1

