# File generated by Flopy version 3.9.1 on 05/23/2025 at 10:06:37.
BEGIN options
END options

BEGIN timing
  TDIS6  ex-gwf-hani_b.tdis
END timing

BEGIN models
  gwf6  ex-gwf-hani_b.nam  ex-gwf-hani_b
END models

BEGIN exchanges
END exchanges

BEGIN solutiongroup  1
  ims6  ex-gwf-hani_b.ims  ex-gwf-hani_b
END solutiongroup  1

