# File generated by Flopy version 3.9.1 on 06/29/2025 at 15:04:42.
BEGIN options
END options

BEGIN period  1
  PRINT  BUDGET  ALL
END period  1

