# File generated by Flopy version 3.9.1 on 04/09/2025 at 10:32:34.
BEGIN options
  HEAD  FILEOUT  08_p02.hds
END options

BEGIN period  1
  SAVE  HEAD  LAST
END period  1

