# File generated by Flopy version 3.9.1 on 05/17/2025 at 09:36:46.
BEGIN options
  COMPLEXITY  simple
END options

BEGIN nonlinear
  OUTER_DVCLOSE  1.00000000E-06
END nonlinear

BEGIN linear
  INNER_DVCLOSE  1.00000000E-06
  inner_rclose  1.00000000E-06
END linear

