# File generated by Flopy version 3.9.1 on 05/17/2025 at 09:36:46.
BEGIN options
  BUDGET  FILEOUT  ex01_mf6.cbb
  HEAD  FILEOUT  ex01_mf6.hds
END options

BEGIN period  1
  SAVE  HEAD  ALL
  SAVE  BUDGET  ALL
END period  1

