MODPATH_TIMESERIES_FILE         7         2
    1   0.0000000000E+00  0.0000000000E+00  0.0000000000E+00  0.0000000000E+00
END HEADER
       0       1  0.0000000000E+00         1    1      1001         3  0.5000000000E+00  0.5000000000E+00  0.5000000000E+00  0.1250000000E+04  0.1025000000E+05  0.2794615257E+03         1
       0       1  0.0000000000E+00         2    1      1002        23  0.5000000000E+00  0.5000000000E+00  0.5000000000E+00  0.1250000000E+04  0.9750000000E+04  0.2794604516E+03         1
       0       1  0.0000000000E+00         3    1      1003        43  0.5000000000E+00  0.5000000000E+00  0.5000000000E+00  0.1250000000E+04  0.9250000000E+04  0.2794583755E+03         1
       0       1  0.0000000000E+00         4    1      1004        63  0.5000000000E+00  0.5000000000E+00  0.5000000000E+00  0.1250000000E+04  0.8750000000E+04  0.2794554410E+03         1
       0       1  0.0000000000E+00         5    1      1005       343  0.5000000000E+00  0.5000000000E+00  0.5000000000E+00  0.1250000000E+04  0.1750000000E+04  0.2794554410E+03         1
       0       1  0.0000000000E+00         6    1      1006       363  0.5000000000E+00  0.5000000000E+00  0.5000000000E+00  0.1250000000E+04  0.1250000000E+04  0.2794583755E+03         1
       0       1  0.0000000000E+00         7    1      1007       383  0.5000000000E+00  0.5000000000E+00  0.5000000000E+00  0.1250000000E+04  0.7500000000E+03  0.2794604516E+03         1
       0       1  0.0000000000E+00         8    1      1008       403  0.5000000000E+00  0.5000000000E+00  0.5000000000E+00  0.1250000000E+04  0.2500000000E+03  0.2794615257E+03         1
       1       1  0.1000000000E-01         1    1      1001         3  0.5000028173E+00  0.4999999785E+00  0.4999984974E+00  0.1250001409E+04  0.1024999999E+05  0.2794613470E+03         1
       1       1  0.1000000000E-01         2    1      1002        23  0.5000028207E+00  0.4999999370E+00  0.4999984966E+00  0.1250001410E+04  0.9749999968E+04  0.2794602728E+03         1
       1       1  0.1000000000E-01         3    1      1003        43  0.5000028277E+00  0.4999998998E+00  0.4999984948E+00  0.1250001414E+04  0.9249999950E+04  0.2794581965E+03         1
       1       1  0.1000000000E-01         4    1      1004        63  0.5000028380E+00  0.4999998697E+00  0.4999984923E+00  0.1250001419E+04  0.8749999935E+04  0.2794552617E+03         1
       1       1  0.1000000000E-01         5    1      1005       343  0.5000028380E+00  0.5000001303E+00  0.4999984923E+00  0.1250001419E+04  0.1750000065E+04  0.2794552617E+03         1
       1       1  0.1000000000E-01         6    1      1006       363  0.5000028277E+00  0.5000001002E+00  0.4999984948E+00  0.1250001414E+04  0.1250000050E+04  0.2794581965E+03         1
       1       1  0.1000000000E-01         7    1      1007       383  0.5000028207E+00  0.5000000630E+00  0.4999984966E+00  0.1250001410E+04  0.7500000315E+03  0.2794602728E+03         1
       1       1  0.1000000000E-01         8    1      1008       403  0.5000028173E+00  0.5000000215E+00  0.4999984974E+00  0.1250001409E+04  0.2500000107E+03  0.2794613470E+03         1
       2       1  0.2000000000E-01         1    1      1001         3  0.5000056345E+00  0.4999999570E+00  0.4999969949E+00  0.1250002817E+04  0.1024999998E+05  0.2794611683E+03         1
       2       1  0.2000000000E-01         2    1      1002        23  0.5000056415E+00  0.4999998740E+00  0.4999969931E+00  0.1250002821E+04  0.9749999937E+04  0.2794600940E+03         1
       2       1  0.2000000000E-01         3    1      1003        43  0.5000056554E+00  0.4999997996E+00  0.4999969896E+00  0.1250002828E+04  0.9249999900E+04  0.2794580175E+03         1
       2       1  0.2000000000E-01         4    1      1004        63  0.5000056760E+00  0.4999997394E+00  0.4999969846E+00  0.1250002838E+04  0.8749999870E+04  0.2794550824E+03         1
       2       1  0.2000000000E-01         5    1      1005       343  0.5000056760E+00  0.5000002606E+00  0.4999969846E+00  0.1250002838E+04  0.1750000130E+04  0.2794550824E+03         1
       2       1  0.2000000000E-01         6    1      1006       363  0.5000056554E+00  0.5000002004E+00  0.4999969896E+00  0.1250002828E+04  0.1250000100E+04  0.2794580175E+03         1
       2       1  0.2000000000E-01         7    1      1007       383  0.5000056415E+00  0.5000001260E+00  0.4999969931E+00  0.1250002821E+04  0.7500000630E+03  0.2794600940E+03         1
       2       1  0.2000000000E-01         8    1      1008       403  0.5000056345E+00  0.5000000430E+00  0.4999969949E+00  0.1250002817E+04  0.2500000215E+03  0.2794611683E+03         1
       3       1  0.3000000000E-01         1    1      1001         3  0.5000084518E+00  0.4999999356E+00  0.4999954923E+00  0.1250004226E+04  0.1024999997E+05  0.2794609896E+03         1
       3       1  0.3000000000E-01         2    1      1002        23  0.5000084622E+00  0.4999998110E+00  0.4999954897E+00  0.1250004231E+04  0.9749999905E+04  0.2794599152E+03         1
       3       1  0.3000000000E-01         3    1      1003        43  0.5000084830E+00  0.4999996994E+00  0.4999954845E+00  0.1250004242E+04  0.9249999850E+04  0.2794578385E+03         1
       3       1  0.3000000000E-01         4    1      1004        63  0.5000085141E+00  0.4999996091E+00  0.4999954769E+00  0.1250004257E+04  0.8749999805E+04  0.2794549031E+03         1
       3       1  0.3000000000E-01         5    1      1005       343  0.5000085141E+00  0.5000003909E+00  0.4999954769E+00  0.1250004257E+04  0.1750000195E+04  0.2794549031E+03         1
       3       1  0.3000000000E-01         6    1      1006       363  0.5000084830E+00  0.5000003006E+00  0.4999954845E+00  0.1250004242E+04  0.1250000150E+04  0.2794578385E+03         1
       3       1  0.3000000000E-01         7    1      1007       383  0.5000084622E+00  0.5000001890E+00  0.4999954897E+00  0.1250004231E+04  0.7500000945E+03  0.2794599152E+03         1
       3       1  0.3000000000E-01         8    1      1008       403  0.5000084518E+00  0.5000000644E+00  0.4999954923E+00  0.1250004226E+04  0.2500000322E+03  0.2794609896E+03         1
       4       1  0.4000000000E-01         1    1      1001         3  0.5000112691E+00  0.4999999141E+00  0.4999939897E+00  0.1250005635E+04  0.1024999996E+05  0.2794608109E+03         1
       4       1  0.4000000000E-01         2    1      1002        23  0.5000112830E+00  0.4999997480E+00  0.4999939862E+00  0.1250005641E+04  0.9749999874E+04  0.2794597364E+03         1
       4       1  0.4000000000E-01         3    1      1003        43  0.5000113107E+00  0.4999995992E+00  0.4999939793E+00  0.1250005655E+04  0.9249999800E+04  0.2794576595E+03         1
       4       1  0.4000000000E-01         4    1      1004        63  0.5000113521E+00  0.4999994788E+00  0.4999939692E+00  0.1250005676E+04  0.8749999739E+04  0.2794547238E+03         1
       4       1  0.4000000000E-01         5    1      1005       343  0.5000113521E+00  0.5000005212E+00  0.4999939692E+00  0.1250005676E+04  0.1750000261E+04  0.2794547238E+03         1
       4       1  0.4000000000E-01         6    1      1006       363  0.5000113107E+00  0.5000004008E+00  0.4999939793E+00  0.1250005655E+04  0.1250000200E+04  0.2794576595E+03         1
       4       1  0.4000000000E-01         7    1      1007       383  0.5000112830E+00  0.5000002520E+00  0.4999939862E+00  0.1250005641E+04  0.7500001260E+03  0.2794597364E+03         1
       4       1  0.4000000000E-01         8    1      1008       403  0.5000112691E+00  0.5000000859E+00  0.4999939897E+00  0.1250005635E+04  0.2500000430E+03  0.2794608109E+03         1
       5       1  0.5000000000E-01         1    1      1001         3  0.5000140864E+00  0.4999998926E+00  0.4999924871E+00  0.1250007043E+04  0.1024999995E+05  0.2794606322E+03         1
       5       1  0.5000000000E-01         2    1      1002        23  0.5000141037E+00  0.4999996850E+00  0.4999924827E+00  0.1250007052E+04  0.9749999842E+04  0.2794595576E+03         1
       5       1  0.5000000000E-01         3    1      1003        43  0.5000141384E+00  0.4999994989E+00  0.4999924741E+00  0.1250007069E+04  0.9249999749E+04  0.2794574805E+03         1
       5       1  0.5000000000E-01         4    1      1004        63  0.5000141901E+00  0.4999993485E+00  0.4999924615E+00  0.1250007095E+04  0.8749999674E+04  0.2794545446E+03         1
       5       1  0.5000000000E-01         5    1      1005       343  0.5000141901E+00  0.5000006515E+00  0.4999924615E+00  0.1250007095E+04  0.1750000326E+04  0.2794545446E+03         1
       5       1  0.5000000000E-01         6    1      1006       363  0.5000141384E+00  0.5000005011E+00  0.4999924741E+00  0.1250007069E+04  0.1250000251E+04  0.2794574805E+03         1
       5       1  0.5000000000E-01         7    1      1007       383  0.5000141037E+00  0.5000003150E+00  0.4999924827E+00  0.1250007052E+04  0.7500001575E+03  0.2794595576E+03         1
       5       1  0.5000000000E-01         8    1      1008       403  0.5000140864E+00  0.5000001074E+00  0.4999924871E+00  0.1250007043E+04  0.2500000537E+03  0.2794606322E+03         1
       6       1  0.6000000000E-01         1    1      1001         3  0.5000169037E+00  0.4999998711E+00  0.4999909845E+00  0.1250008452E+04  0.1024999994E+05  0.2794604535E+03         1
       6       1  0.6000000000E-01         2    1      1002        23  0.5000169245E+00  0.4999996220E+00  0.4999909793E+00  0.1250008462E+04  0.9749999811E+04  0.2794593788E+03         1
       6       1  0.6000000000E-01         3    1      1003        43  0.5000169661E+00  0.4999993987E+00  0.4999909689E+00  0.1250008483E+04  0.9249999699E+04  0.2794573016E+03         1
       6       1  0.6000000000E-01         4    1      1004        63  0.5000170281E+00  0.4999992182E+00  0.4999909538E+00  0.1250008514E+04  0.8749999609E+04  0.2794543653E+03         1
       6       1  0.6000000000E-01         5    1      1005       343  0.5000170281E+00  0.5000007818E+00  0.4999909538E+00  0.1250008514E+04  0.1750000391E+04  0.2794543653E+03         1
       6       1  0.6000000000E-01         6    1      1006       363  0.5000169661E+00  0.5000006013E+00  0.4999909689E+00  0.1250008483E+04  0.1250000301E+04  0.2794573016E+03         1
       6       1  0.6000000000E-01         7    1      1007       383  0.5000169245E+00  0.5000003780E+00  0.4999909793E+00  0.1250008462E+04  0.7500001890E+03  0.2794593788E+03         1
       6       1  0.6000000000E-01         8    1      1008       403  0.5000169037E+00  0.5000001289E+00  0.4999909845E+00  0.1250008452E+04  0.2500000644E+03  0.2794604535E+03         1
       7       1  0.7000000000E-01         1    1      1001         3  0.5000197210E+00  0.4999998496E+00  0.4999894820E+00  0.1250009860E+04  0.1024999992E+05  0.2794602748E+03         1
       7       1  0.7000000000E-01         2    1      1002        23  0.5000197453E+00  0.4999995590E+00  0.4999894758E+00  0.1250009873E+04  0.9749999779E+04  0.2794592000E+03         1
       7       1  0.7000000000E-01         3    1      1003        43  0.5000197938E+00  0.4999992985E+00  0.4999894637E+00  0.1250009897E+04  0.9249999649E+04  0.2794571226E+03         1
       7       1  0.7000000000E-01         4    1      1004        63  0.5000198662E+00  0.4999990879E+00  0.4999894461E+00  0.1250009933E+04  0.8749999544E+04  0.2794541860E+03         1
       7       1  0.7000000000E-01         5    1      1005       343  0.5000198662E+00  0.5000009121E+00  0.4999894461E+00  0.1250009933E+04  0.1750000456E+04  0.2794541860E+03         1
       7       1  0.7000000000E-01         6    1      1006       363  0.5000197938E+00  0.5000007015E+00  0.4999894637E+00  0.1250009897E+04  0.1250000351E+04  0.2794571226E+03         1
       7       1  0.7000000000E-01         7    1      1007       383  0.5000197453E+00  0.5000004410E+00  0.4999894758E+00  0.1250009873E+04  0.7500002205E+03  0.2794592000E+03         1
       7       1  0.7000000000E-01         8    1      1008       403  0.5000197210E+00  0.5000001504E+00  0.4999894820E+00  0.1250009860E+04  0.2500000752E+03  0.2794602748E+03         1
       8       1  0.8000000000E-01         1    1      1001         3  0.5000225383E+00  0.4999998281E+00  0.4999879794E+00  0.1250011269E+04  0.1024999991E+05  0.2794600962E+03         1
       8       1  0.8000000000E-01         2    1      1002        23  0.5000225660E+00  0.4999994960E+00  0.4999879723E+00  0.1250011283E+04  0.9749999748E+04  0.2794590212E+03         1
       8       1  0.8000000000E-01         3    1      1003        43  0.5000226215E+00  0.4999991983E+00  0.4999879585E+00  0.1250011311E+04  0.9249999599E+04  0.2794569436E+03         1
       8       1  0.8000000000E-01         4    1      1004        63  0.5000227042E+00  0.4999989576E+00  0.4999879384E+00  0.1250011352E+04  0.8749999479E+04  0.2794540067E+03         1
       8       1  0.8000000000E-01         5    1      1005       343  0.5000227042E+00  0.5000010424E+00  0.4999879384E+00  0.1250011352E+04  0.1750000521E+04  0.2794540067E+03         1
       8       1  0.8000000000E-01         6    1      1006       363  0.5000226215E+00  0.5000008017E+00  0.4999879585E+00  0.1250011311E+04  0.1250000401E+04  0.2794569436E+03         1
       8       1  0.8000000000E-01         7    1      1007       383  0.5000225660E+00  0.5000005040E+00  0.4999879723E+00  0.1250011283E+04  0.7500002520E+03  0.2794590212E+03         1
       8       1  0.8000000000E-01         8    1      1008       403  0.5000225383E+00  0.5000001719E+00  0.4999879794E+00  0.1250011269E+04  0.2500000859E+03  0.2794600962E+03         1
       9       1  0.9000000000E-01         1    1      1001         3  0.5000253556E+00  0.4999998067E+00  0.4999864768E+00  0.1250012678E+04  0.1024999990E+05  0.2794599175E+03         1
       9       1  0.9000000000E-01         2    1      1002        23  0.5000253868E+00  0.4999994330E+00  0.4999864688E+00  0.1250012693E+04  0.9749999716E+04  0.2794588424E+03         1
       9       1  0.9000000000E-01         3    1      1003        43  0.5000254492E+00  0.4999990981E+00  0.4999864533E+00  0.1250012725E+04  0.9249999549E+04  0.2794567646E+03         1
       9       1  0.9000000000E-01         4    1      1004        63  0.5000255422E+00  0.4999988274E+00  0.4999864306E+00  0.1250012771E+04  0.8749999414E+04  0.2794538274E+03         1
       9       1  0.9000000000E-01         5    1      1005       343  0.5000255422E+00  0.5000011726E+00  0.4999864306E+00  0.1250012771E+04  0.1750000586E+04  0.2794538274E+03         1
       9       1  0.9000000000E-01         6    1      1006       363  0.5000254492E+00  0.5000009019E+00  0.4999864533E+00  0.1250012725E+04  0.1250000451E+04  0.2794567646E+03         1
       9       1  0.9000000000E-01         7    1      1007       383  0.5000253868E+00  0.5000005670E+00  0.4999864688E+00  0.1250012693E+04  0.7500002835E+03  0.2794588424E+03         1
       9       1  0.9000000000E-01         8    1      1008       403  0.5000253556E+00  0.5000001933E+00  0.4999864768E+00  0.1250012678E+04  0.2500000967E+03  0.2794599175E+03         1
      10       1  0.1000000000E+00         1    1      1001         3  0.5000281729E+00  0.4999997852E+00  0.4999849742E+00  0.1250014086E+04  0.1024999989E+05  0.2794597388E+03         1
      10       1  0.1000000000E+00         2    1      1002        23  0.5000282076E+00  0.4999993700E+00  0.4999849654E+00  0.1250014104E+04  0.9749999685E+04  0.2794586637E+03         1
      10       1  0.1000000000E+00         3    1      1003        43  0.5000282769E+00  0.4999989979E+00  0.4999849481E+00  0.1250014138E+04  0.9249999499E+04  0.2794565856E+03         1
      10       1  0.1000000000E+00         4    1      1004        63  0.5000283803E+00  0.4999986971E+00  0.4999849229E+00  0.1250014190E+04  0.8749999349E+04  0.2794536481E+03         1
      10       1  0.1000000000E+00         5    1      1005       343  0.5000283803E+00  0.5000013029E+00  0.4999849229E+00  0.1250014190E+04  0.1750000651E+04  0.2794536481E+03         1
      10       1  0.1000000000E+00         6    1      1006       363  0.5000282769E+00  0.5000010021E+00  0.4999849481E+00  0.1250014138E+04  0.1250000501E+04  0.2794565856E+03         1
      10       1  0.1000000000E+00         7    1      1007       383  0.5000282076E+00  0.5000006300E+00  0.4999849654E+00  0.1250014104E+04  0.7500003150E+03  0.2794586637E+03         1
      10       1  0.1000000000E+00         8    1      1008       403  0.5000281729E+00  0.5000002148E+00  0.4999849742E+00  0.1250014086E+04  0.2500001074E+03  0.2794597388E+03         1
      11       1  0.1100000000E+00         1    1      1001         3  0.5000309902E+00  0.4999997637E+00  0.4999834715E+00  0.1250015495E+04  0.1024999988E+05  0.2794595601E+03         1
      11       1  0.1100000000E+00         2    1      1002        23  0.5000310284E+00  0.4999993070E+00  0.4999834619E+00  0.1250015514E+04  0.9749999653E+04  0.2794584849E+03         1
      11       1  0.1100000000E+00         3    1      1003        43  0.5000311046E+00  0.4999988977E+00  0.4999834428E+00  0.1250015552E+04  0.9249999449E+04  0.2794564066E+03         1
      11       1  0.1100000000E+00         4    1      1004        63  0.5000312183E+00  0.4999985668E+00  0.4999834152E+00  0.1250015609E+04  0.8749999283E+04  0.2794534688E+03         1
      11       1  0.1100000000E+00         5    1      1005       343  0.5000312183E+00  0.5000014332E+00  0.4999834152E+00  0.1250015609E+04  0.1750000717E+04  0.2794534688E+03         1
      11       1  0.1100000000E+00         6    1      1006       363  0.5000311046E+00  0.5000011023E+00  0.4999834428E+00  0.1250015552E+04  0.1250000551E+04  0.2794564066E+03         1
      11       1  0.1100000000E+00         7    1      1007       383  0.5000310284E+00  0.5000006930E+00  0.4999834619E+00  0.1250015514E+04  0.7500003465E+03  0.2794584849E+03         1
      11       1  0.1100000000E+00         8    1      1008       403  0.5000309902E+00  0.5000002363E+00  0.4999834715E+00  0.1250015495E+04  0.2500001181E+03  0.2794595601E+03         1
      12       1  0.1200000000E+00         1    1      1001         3  0.5000338075E+00  0.4999997422E+00  0.4999819689E+00  0.1250016904E+04  0.1024999987E+05  0.2794593814E+03         1
      12       1  0.1200000000E+00         2    1      1002        23  0.5000338491E+00  0.4999992440E+00  0.4999819584E+00  0.1250016925E+04  0.9749999622E+04  0.2794583061E+03         1
      12       1  0.1200000000E+00         3    1      1003        43  0.5000339323E+00  0.4999987975E+00  0.4999819376E+00  0.1250016966E+04  0.9249999399E+04  0.2794562276E+03         1
      12       1  0.1200000000E+00         4    1      1004        63  0.5000340564E+00  0.4999984365E+00  0.4999819074E+00  0.1250017028E+04  0.8749999218E+04  0.2794532896E+03         1
      12       1  0.1200000000E+00         5    1      1005       343  0.5000340564E+00  0.5000015635E+00  0.4999819074E+00  0.1250017028E+04  0.1750000782E+04  0.2794532896E+03         1
      12       1  0.1200000000E+00         6    1      1006       363  0.5000339323E+00  0.5000012025E+00  0.4999819376E+00  0.1250016966E+04  0.1250000601E+04  0.2794562276E+03         1
      12       1  0.1200000000E+00         7    1      1007       383  0.5000338491E+00  0.5000007560E+00  0.4999819584E+00  0.1250016925E+04  0.7500003780E+03  0.2794583061E+03         1
      12       1  0.1200000000E+00         8    1      1008       403  0.5000338075E+00  0.5000002578E+00  0.4999819689E+00  0.1250016904E+04  0.2500001289E+03  0.2794593814E+03         1
      13       1  0.1300000000E+00         1    1      1001         3  0.5000366248E+00  0.4999997207E+00  0.4999804663E+00  0.1250018312E+04  0.1024999986E+05  0.2794592027E+03         1
      13       1  0.1300000000E+00         2    1      1002        23  0.5000366699E+00  0.4999991810E+00  0.4999804549E+00  0.1250018335E+04  0.9749999590E+04  0.2794581273E+03         1
      13       1  0.1300000000E+00         3    1      1003        43  0.5000367601E+00  0.4999986972E+00  0.4999804324E+00  0.1250018380E+04  0.9249999349E+04  0.2794560486E+03         1
      13       1  0.1300000000E+00         4    1      1004        63  0.5000368944E+00  0.4999983062E+00  0.4999803997E+00  0.1250018447E+04  0.8749999153E+04  0.2794531103E+03         1
      13       1  0.1300000000E+00         5    1      1005       343  0.5000368944E+00  0.5000016938E+00  0.4999803997E+00  0.1250018447E+04  0.1750000847E+04  0.2794531103E+03         1
      13       1  0.1300000000E+00         6    1      1006       363  0.5000367601E+00  0.5000013028E+00  0.4999804324E+00  0.1250018380E+04  0.1250000651E+04  0.2794560486E+03         1
      13       1  0.1300000000E+00         7    1      1007       383  0.5000366699E+00  0.5000008190E+00  0.4999804549E+00  0.1250018335E+04  0.7500004095E+03  0.2794581273E+03         1
      13       1  0.1300000000E+00         8    1      1008       403  0.5000366248E+00  0.5000002793E+00  0.4999804663E+00  0.1250018312E+04  0.2500001396E+03  0.2794592027E+03         1
      14       1  0.1400000000E+00         1    1      1001         3  0.5000394421E+00  0.4999996993E+00  0.4999789637E+00  0.1250019721E+04  0.1024999985E+05  0.2794590240E+03         1
      14       1  0.1400000000E+00         2    1      1002        23  0.5000394907E+00  0.4999991180E+00  0.4999789514E+00  0.1250019745E+04  0.9749999559E+04  0.2794579485E+03         1
      14       1  0.1400000000E+00         3    1      1003        43  0.5000395878E+00  0.4999985970E+00  0.4999789271E+00  0.1250019794E+04  0.9249999299E+04  0.2794558696E+03         1
      14       1  0.1400000000E+00         4    1      1004        63  0.5000397325E+00  0.4999981759E+00  0.4999788919E+00  0.1250019866E+04  0.8749999088E+04  0.2794529310E+03         1
      14       1  0.1400000000E+00         5    1      1005       343  0.5000397325E+00  0.5000018241E+00  0.4999788919E+00  0.1250019866E+04  0.1750000912E+04  0.2794529310E+03         1
      14       1  0.1400000000E+00         6    1      1006       363  0.5000395878E+00  0.5000014030E+00  0.4999789271E+00  0.1250019794E+04  0.1250000701E+04  0.2794558696E+03         1
      14       1  0.1400000000E+00         7    1      1007       383  0.5000394907E+00  0.5000008820E+00  0.4999789514E+00  0.1250019745E+04  0.7500004410E+03  0.2794579485E+03         1
      14       1  0.1400000000E+00         8    1      1008       403  0.5000394421E+00  0.5000003007E+00  0.4999789637E+00  0.1250019721E+04  0.2500001504E+03  0.2794590240E+03         1
      15       1  0.1500000000E+00         1    1      1001         3  0.5000422594E+00  0.4999996778E+00  0.4999774611E+00  0.1250021130E+04  0.1024999984E+05  0.2794588453E+03         1
      15       1  0.1500000000E+00         2    1      1002        23  0.5000423115E+00  0.4999990550E+00  0.4999774479E+00  0.1250021156E+04  0.9749999527E+04  0.2794577697E+03         1
      15       1  0.1500000000E+00         3    1      1003        43  0.5000424155E+00  0.4999984968E+00  0.4999774219E+00  0.1250021208E+04  0.9249999248E+04  0.2794556906E+03         1
      15       1  0.1500000000E+00         4    1      1004        63  0.5000425705E+00  0.4999980456E+00  0.4999773842E+00  0.1250021285E+04  0.8749999023E+04  0.2794527517E+03         1
      15       1  0.1500000000E+00         5    1      1005       343  0.5000425705E+00  0.5000019544E+00  0.4999773842E+00  0.1250021285E+04  0.1750000977E+04  0.2794527517E+03         1
      15       1  0.1500000000E+00         6    1      1006       363  0.5000424155E+00  0.5000015032E+00  0.4999774219E+00  0.1250021208E+04  0.1250000752E+04  0.2794556906E+03         1
      15       1  0.1500000000E+00         7    1      1007       383  0.5000423115E+00  0.5000009450E+00  0.4999774479E+00  0.1250021156E+04  0.7500004725E+03  0.2794577697E+03         1
      15       1  0.1500000000E+00         8    1      1008       403  0.5000422594E+00  0.5000003222E+00  0.4999774611E+00  0.1250021130E+04  0.2500001611E+03  0.2794588453E+03         1
      16       1  0.1600000000E+00         1    1      1001         3  0.5000450767E+00  0.4999996563E+00  0.4999759584E+00  0.1250022538E+04  0.1024999983E+05  0.2794586666E+03         1
      16       1  0.1600000000E+00         2    1      1002        23  0.5000451323E+00  0.4999989920E+00  0.4999759443E+00  0.1250022566E+04  0.9749999496E+04  0.2794575909E+03         1
      16       1  0.1600000000E+00         3    1      1003        43  0.5000452432E+00  0.4999983966E+00  0.4999759167E+00  0.1250022622E+04  0.9249999198E+04  0.2794555116E+03         1
      16       1  0.1600000000E+00         4    1      1004        63  0.5000454086E+00  0.4999979153E+00  0.4999758764E+00  0.1250022704E+04  0.8749998958E+04  0.2794525724E+03         1
      16       1  0.1600000000E+00         5    1      1005       343  0.5000454086E+00  0.5000020847E+00  0.4999758764E+00  0.1250022704E+04  0.1750001042E+04  0.2794525724E+03         1
      16       1  0.1600000000E+00         6    1      1006       363  0.5000452432E+00  0.5000016034E+00  0.4999759167E+00  0.1250022622E+04  0.1250000802E+04  0.2794555116E+03         1
      16       1  0.1600000000E+00         7    1      1007       383  0.5000451323E+00  0.5000010080E+00  0.4999759443E+00  0.1250022566E+04  0.7500005040E+03  0.2794575909E+03         1
      16       1  0.1600000000E+00         8    1      1008       403  0.5000450767E+00  0.5000003437E+00  0.4999759584E+00  0.1250022538E+04  0.2500001719E+03  0.2794586666E+03         1
      17       1  0.1700000000E+00         1    1      1001         3  0.5000478941E+00  0.4999996348E+00  0.4999744558E+00  0.1250023947E+04  0.1024999982E+05  0.2794584879E+03         1
      17       1  0.1700000000E+00         2    1      1002        23  0.5000479531E+00  0.4999989289E+00  0.4999744408E+00  0.1250023977E+04  0.9749999464E+04  0.2794574121E+03         1
      17       1  0.1700000000E+00         3    1      1003        43  0.5000480710E+00  0.4999982964E+00  0.4999744114E+00  0.1250024035E+04  0.9249999148E+04  0.2794553326E+03         1
      17       1  0.1700000000E+00         4    1      1004        63  0.5000482467E+00  0.4999977850E+00  0.4999743687E+00  0.1250024123E+04  0.8749998892E+04  0.2794523931E+03         1
      17       1  0.1700000000E+00         5    1      1005       343  0.5000482467E+00  0.5000022150E+00  0.4999743687E+00  0.1250024123E+04  0.1750001108E+04  0.2794523931E+03         1
      17       1  0.1700000000E+00         6    1      1006       363  0.5000480710E+00  0.5000017036E+00  0.4999744114E+00  0.1250024035E+04  0.1250000852E+04  0.2794553326E+03         1
      17       1  0.1700000000E+00         7    1      1007       383  0.5000479531E+00  0.5000010711E+00  0.4999744408E+00  0.1250023977E+04  0.7500005355E+03  0.2794574121E+03         1
      17       1  0.1700000000E+00         8    1      1008       403  0.5000478941E+00  0.5000003652E+00  0.4999744558E+00  0.1250023947E+04  0.2500001826E+03  0.2794584879E+03         1
      18       1  0.1800000000E+00         1    1      1001         3  0.5000507114E+00  0.4999996133E+00  0.4999729531E+00  0.1250025356E+04  0.1024999981E+05  0.2794583092E+03         1
      18       1  0.1800000000E+00         2    1      1002        23  0.5000507739E+00  0.4999988659E+00  0.4999729373E+00  0.1250025387E+04  0.9749999433E+04  0.2794572333E+03         1
      18       1  0.1800000000E+00         3    1      1003        43  0.5000508987E+00  0.4999981962E+00  0.4999729062E+00  0.1250025449E+04  0.9249999098E+04  0.2794551536E+03         1
      18       1  0.1800000000E+00         4    1      1004        63  0.5000510847E+00  0.4999976547E+00  0.4999728609E+00  0.1250025542E+04  0.8749998827E+04  0.2794522138E+03         1
      18       1  0.1800000000E+00         5    1      1005       343  0.5000510847E+00  0.5000023453E+00  0.4999728609E+00  0.1250025542E+04  0.1750001173E+04  0.2794522138E+03         1
      18       1  0.1800000000E+00         6    1      1006       363  0.5000508987E+00  0.5000018038E+00  0.4999729062E+00  0.1250025449E+04  0.1250000902E+04  0.2794551536E+03         1
      18       1  0.1800000000E+00         7    1      1007       383  0.5000507739E+00  0.5000011341E+00  0.4999729373E+00  0.1250025387E+04  0.7500005670E+03  0.2794572333E+03         1
      18       1  0.1800000000E+00         8    1      1008       403  0.5000507114E+00  0.5000003867E+00  0.4999729531E+00  0.1250025356E+04  0.2500001933E+03  0.2794583092E+03         1
      19       1  0.1900000000E+00         1    1      1001         3  0.5000535287E+00  0.4999995918E+00  0.4999714505E+00  0.1250026764E+04  0.1024999980E+05  0.2794581305E+03         1
      19       1  0.1900000000E+00         2    1      1002        23  0.5000535947E+00  0.4999988029E+00  0.4999714338E+00  0.1250026797E+04  0.9749999401E+04  0.2794570545E+03         1
      19       1  0.1900000000E+00         3    1      1003        43  0.5000537264E+00  0.4999980960E+00  0.4999714009E+00  0.1250026863E+04  0.9249999048E+04  0.2794549746E+03         1
      19       1  0.1900000000E+00         4    1      1004        63  0.5000539228E+00  0.4999975244E+00  0.4999713531E+00  0.1250026961E+04  0.8749998762E+04  0.2794520345E+03         1
      19       1  0.1900000000E+00         5    1      1005       343  0.5000539228E+00  0.5000024756E+00  0.4999713531E+00  0.1250026961E+04  0.1750001238E+04  0.2794520345E+03         1
      19       1  0.1900000000E+00         6    1      1006       363  0.5000537264E+00  0.5000019040E+00  0.4999714009E+00  0.1250026863E+04  0.1250000952E+04  0.2794549746E+03         1