# File generated by Flopy version 3.9.1 on 03/01/2025 at 07:50:09.
BEGIN options
END options

BEGIN sources
  wel-1  aux  concentration
  chd-1  aux  concentration
END sources

