# File generated by Flopy version 3.9.1 on 05/04/2025 at 06:01:08.
BEGIN options
  TIME_UNITS  days
END options

BEGIN dimensions
  NPER  4
END dimensions

BEGIN perioddata
       1.00000000  1       1.00000000
      10.00000000  120       1.00000000
      10.00000000  120       1.00000000
      10.00000000  120       1.00000000
END perioddata

