# File generated by Flopy version 3.9.1 on 05/04/2025 at 06:01:08.
BEGIN options
END options

BEGIN griddata
  strt
    CONSTANT      50.00000000
END griddata

