# File generated by Flopy version 3.9.1 on 06/21/2025 at 10:18:25.
BEGIN options
END options

BEGIN griddata
  strt
    CONSTANT      50.00000000
END griddata

