# File generated by Flopy version 3.9.1 on 02/15/2025 at 15:33:27.
BEGIN options
  TIME_UNITS  days
END options

BEGIN dimensions
  NPER  1
END dimensions

BEGIN perioddata
    2000.00000000  100       1.00000000
END perioddata

