# File generated by Flopy version 3.9.1 on 02/15/2025 at 15:33:27.
BEGIN options
  SAVE_SPECIFIC_DISCHARGE
END options

BEGIN griddata
  icelltype
    CONSTANT  1
  k
    CONSTANT       1.00000000
  k33
    CONSTANT       1.00000000
END griddata

