# File generated by Flopy version 3.9.1 on 02/17/2025 at 17:13:20.
BEGIN options
  SAVE_FLOWS
END options

BEGIN packages
  DIS6  gwt-p01-mf6.dis  dis
  IC6  gwt-p01-mf6.ic  ic
  ADV6  gwt-p01-mf6.adv  adv
  MST6  gwt-p01-mf6.mst  mst
  CNC6  gwt-p01-mf6.cnc  cnc-1
  SSM6  gwt-p01-mf6.ssm  ssm
  OC6  gwt-p01-mf6.oc  oc
END packages

