# Name file for MT3DMS, generated by Flopy version 3.9.1.
LIST              16  mt04_mt.list
FTL               10  mt3d_link.ftl 
BTN               31  mt04_mt.btn
ADV               32  mt04_mt.adv
DSP               33  mt04_mt.dsp
SSM               34  mt04_mt.ssm
GCG               35  mt04_mt.gcg
