# File generated by Flopy version 3.9.1 on 04/04/2025 at 15:14:00.
BEGIN options
  TIME_UNITS  seconds
END options

BEGIN dimensions
  NPER  2
END dimensions

BEGIN perioddata
  3.15360000E+07  365       1.00000000
  3.15360000E+07  365       1.00000000
END perioddata

