# LPF package for MODFLOW-2005 generated by Flopy 3.9.1
         0    -1E+30         0  
         0
         0
   1.000000E+00
         0
         0
INTERNAL               1  (10E15.6) -1 #hk layer 1                    
   1.645768E+00   1.258241E+00   8.326668E-01   5.165250E-01   3.396085E-01   2.875623E-01   3.145787E-01   2.698765E-01   2.593283E-01   3.356029E-01
   9.802884E-01   1.164724E+00   8.835125E-01   5.628416E-01   3.418263E-01   2.905572E-01   2.703049E-01   2.582419E-01   3.363478E-01   4.023888E-01
   5.767599E-01   7.328468E-01   7.184914E-01   8.187310E-01   8.743576E-01   8.201560E-01   9.706479E-01   1.162514E+00   1.177366E+00   9.479091E-01
CONSTANT    1.000000E+00                           #vka1                          
