# File generated by Flopy version 3.9.1 on 04/17/2025 at 15:36:10.
BEGIN options
END options

BEGIN dimensions
  MAXBOUND  1
END dimensions

BEGIN period  1
  10 26 26 -1000
END period  1

