# File generated by Flopy version 3.9.1 on 04/17/2025 at 15:36:10.
BEGIN options
END options

BEGIN dimensions
  MAXBOUND  400
END dimensions

BEGIN period  1
  1 1 1 100
  1 1 101 100
  1 2 1 100
  1 2 101 100
  1 1 2 100
  1 101 2 100
  1 3 1 100
  1 3 101 100
  1 1 3 100
  1 101 3 100
  1 4 1 100
  1 4 101 100
  1 1 4 100
  1 101 4 100
  1 5 1 100
  1 5 101 100
  1 1 5 100
  1 101 5 100
  1 6 1 100
  1 6 101 100
  1 1 6 100
  1 101 6 100
  1 7 1 100
  1 7 101 100
  1 1 7 100
  1 101 7 100
  1 8 1 100
  1 8 101 100
  1 1 8 100
  1 101 8 100
  1 9 1 100
  1 9 101 100
  1 1 9 100
  1 101 9 100
  1 10 1 100
  1 10 101 100
  1 1 10 100
  1 101 10 100
  1 11 1 100
  1 11 101 100
  1 1 11 100
  1 101 11 100
  1 12 1 100
  1 12 101 100
  1 1 12 100
  1 101 12 100
  1 13 1 100
  1 13 101 100
  1 1 13 100
  1 101 13 100
  1 14 1 100
  1 14 101 100
  1 1 14 100
  1 101 14 100
  1 15 1 100
  1 15 101 100
  1 1 15 100
  1 101 15 100
  1 16 1 100
  1 16 101 100
  1 1 16 100
  1 101 16 100
  1 17 1 100
  1 17 101 100
  1 1 17 100
  1 101 17 100
  1 18 1 100
  1 18 101 100
  1 1 18 100
  1 101 18 100
  1 19 1 100
  1 19 101 100
  1 1 19 100
  1 101 19 100
  1 20 1 100
  1 20 101 100
  1 1 20 100
  1 101 20 100
  1 21 1 100
  1 21 101 100
  1 1 21 100
  1 101 21 100
  1 22 1 100
  1 22 101 100
  1 1 22 100
  1 101 22 100
  1 23 1 100
  1 23 101 100
  1 1 23 100
  1 101 23 100
  1 24 1 100
  1 24 101 100
  1 1 24 100
  1 101 24 100
  1 25 1 100
  1 25 101 100
  1 1 25 100
  1 101 25 100
  1 26 1 100
  1 26 101 100
  1 1 26 100
  1 101 26 100
  1 27 1 100
  1 27 101 100
  1 1 27 100
  1 101 27 100
  1 28 1 100
  1 28 101 100
  1 1 28 100
  1 101 28 100
  1 29 1 100
  1 29 101 100
  1 1 29 100
  1 101 29 100
  1 30 1 100
  1 30 101 100
  1 1 30 100
  1 101 30 100
  1 31 1 100
  1 31 101 100
  1 1 31 100
  1 101 31 100
  1 32 1 100
  1 32 101 100
  1 1 32 100
  1 101 32 100
  1 33 1 100
  1 33 101 100
  1 1 33 100
  1 101 33 100
  1 34 1 100
  1 34 101 100
  1 1 34 100
  1 101 34 100
  1 35 1 100
  1 35 101 100
  1 1 35 100
  1 101 35 100
  1 36 1 100
  1 36 101 100
  1 1 36 100
  1 101 36 100
  1 37 1 100
  1 37 101 100
  1 1 37 100
  1 101 37 100
  1 38 1 100
  1 38 101 100
  1 1 38 100
  1 101 38 100
  1 39 1 100
  1 39 101 100
  1 1 39 100
  1 101 39 100
  1 40 1 100
  1 40 101 100
  1 1 40 100
  1 101 40 100
  1 41 1 100
  1 41 101 100
  1 1 41 100
  1 101 41 100
  1 42 1 100
  1 42 101 100
  1 1 42 100
  1 101 42 100
  1 43 1 100
  1 43 101 100
  1 1 43 100
  1 101 43 100
  1 44 1 100
  1 44 101 100
  1 1 44 100
  1 101 44 100
  1 45 1 100
  1 45 101 100
  1 1 45 100
  1 101 45 100
  1 46 1 100
  1 46 101 100
  1 1 46 100
  1 101 46 100
  1 47 1 100
  1 47 101 100
  1 1 47 100
  1 101 47 100
  1 48 1 100
  1 48 101 100
  1 1 48 100
  1 101 48 100
  1 49 1 100
  1 49 101 100
  1 1 49 100
  1 101 49 100
  1 50 1 100
  1 50 101 100
  1 1 50 100
  1 101 50 100
  1 51 1 100
  1 51 101 100
  1 1 51 100
  1 101 51 100
  1 52 1 100
  1 52 101 100
  1 1 52 100
  1 101 52 100
  1 53 1 100
  1 53 101 100
  1 1 53 100
  1 101 53 100
  1 54 1 100
  1 54 101 100
  1 1 54 100
  1 101 54 100
  1 55 1 100
  1 55 101 100
  1 1 55 100
  1 101 55 100
  1 56 1 100
  1 56 101 100
  1 1 56 100
  1 101 56 100
  1 57 1 100
  1 57 101 100
  1 1 57 100
  1 101 57 100
  1 58 1 100
  1 58 101 100
  1 1 58 100
  1 101 58 100
  1 59 1 100
  1 59 101 100
  1 1 59 100
  1 101 59 100
  1 60 1 100
  1 60 101 100
  1 1 60 100
  1 101 60 100
  1 61 1 100
  1 61 101 100
  1 1 61 100
  1 101 61 100
  1 62 1 100
  1 62 101 100
  1 1 62 100
  1 101 62 100
  1 63 1 100
  1 63 101 100
  1 1 63 100
  1 101 63 100
  1 64 1 100
  1 64 101 100
  1 1 64 100
  1 101 64 100
  1 65 1 100
  1 65 101 100
  1 1 65 100
  1 101 65 100
  1 66 1 100
  1 66 101 100
  1 1 66 100
  1 101 66 100
  1 67 1 100
  1 67 101 100
  1 1 67 100
  1 101 67 100
  1 68 1 100
  1 68 101 100
  1 1 68 100
  1 101 68 100
  1 69 1 100
  1 69 101 100
  1 1 69 100
  1 101 69 100
  1 70 1 100
  1 70 101 100
  1 1 70 100
  1 101 70 100
  1 71 1 100
  1 71 101 100
  1 1 71 100
  1 101 71 100
  1 72 1 100
  1 72 101 100
  1 1 72 100
  1 101 72 100
  1 73 1 100
  1 73 101 100
  1 1 73 100
  1 101 73 100
  1 74 1 100
  1 74 101 100
  1 1 74 100
  1 101 74 100
  1 75 1 100
  1 75 101 100
  1 1 75 100
  1 101 75 100
  1 76 1 100
  1 76 101 100
  1 1 76 100
  1 101 76 100
  1 77 1 100
  1 77 101 100
  1 1 77 100
  1 101 77 100
  1 78 1 100
  1 78 101 100
  1 1 78 100
  1 101 78 100
  1 79 1 100
  1 79 101 100
  1 1 79 100
  1 101 79 100
  1 80 1 100
  1 80 101 100
  1 1 80 100
  1 101 80 100
  1 81 1 100
  1 81 101 100
  1 1 81 100
  1 101 81 100
  1 82 1 100
  1 82 101 100
  1 1 82 100
  1 101 82 100
  1 83 1 100
  1 83 101 100
  1 1 83 100
  1 101 83 100
  1 84 1 100
  1 84 101 100
  1 1 84 100
  1 101 84 100
  1 85 1 100
  1 85 101 100
  1 1 85 100
  1 101 85 100
  1 86 1 100
  1 86 101 100
  1 1 86 100
  1 101 86 100
  1 87 1 100
  1 87 101 100
  1 1 87 100
  1 101 87 100
  1 88 1 100
  1 88 101 100
  1 1 88 100
  1 101 88 100
  1 89 1 100
  1 89 101 100
  1 1 89 100
  1 101 89 100
  1 90 1 100
  1 90 101 100
  1 1 90 100
  1 101 90 100
  1 91 1 100
  1 91 101 100
  1 1 91 100
  1 101 91 100
  1 92 1 100
  1 92 101 100
  1 1 92 100
  1 101 92 100
  1 93 1 100
  1 93 101 100
  1 1 93 100
  1 101 93 100
  1 94 1 100
  1 94 101 100
  1 1 94 100
  1 101 94 100
  1 95 1 100
  1 95 101 100
  1 1 95 100
  1 101 95 100
  1 96 1 100
  1 96 101 100
  1 1 96 100
  1 101 96 100
  1 97 1 100
  1 97 101 100
  1 1 97 100
  1 101 97 100
  1 98 1 100
  1 98 101 100
  1 1 98 100
  1 101 98 100
  1 99 1 100
  1 99 101 100
  1 1 99 100
  1 101 99 100
  1 100 1 100
  1 100 101 100
  1 1 100 100
  1 101 100 100
  1 101 1 100
  1 101 101 100
END period  1

