# File generated by Flopy version 3.9.1 on 04/30/2025 at 08:42:07.
BEGIN options
  BUDGET  FILEOUT  sfr-p01.cbc
  HEAD  FILEOUT  sfr-p01.hds
END options

BEGIN period  1
  SAVE  HEAD  LAST
  SAVE  BUDGET  LAST
END period  1

