# File generated by Flopy version 3.9.1 on 04/30/2025 at 08:42:07.
BEGIN options
END options

BEGIN griddata
  strt
    CONSTANT    1050.00000000
END griddata

