# RCH package for MODFLOW-2005 generated by Flopy 3.9.1
         3         0
         1        -1 # Stress period 1
CONSTANT    1.140000E-03                           #rech_1                        
