# DIS package for MODFLOW-2005 generated by Flopy 3.8.2
         1        40        20         3         4         2
  0
CONSTANT    1.000000E+01                           #delr                          
CONSTANT    1.000000E+00                           #delc                          
CONSTANT    0.000000E+00                           #model_top                     
CONSTANT   -1.000000E+02                           #botm layer 1                  
      1.000000             1  1.000000  SS
      1.000000             1  1.000000  SS
      1.000000             1  1.000000  SS
