# WEL package for MODFLOW-2005 generated by Flopy 3.8.2
         2         0 
         2         0 # stress period 1
         1        21        11            -1.0
         1        26        16            -1.0
        -1         0 # stress period 2
        -1         0 # stress period 3
