# Name file for MT3DMS, generated by Flopy version 3.9.1.
LIST              16  freundlich_pulse_mt.list
FTL               10  mt3d_link.ftl 
BTN               31  freundlich_pulse_mt.btn
ADV               32  freundlich_pulse_mt.adv
DSP               33  freundlich_pulse_mt.dsp
SSM               34  freundlich_pulse_mt.ssm
RCT               36  freundlich_pulse_mt.rct
GCG               35  freundlich_pulse_mt.gcg
