# File generated by Flopy version 3.9.1 on 05/06/2025 at 14:52:02.
BEGIN options
END options

BEGIN griddata
  strt  LAYERED
    CONSTANT       3.05000000
    CONSTANT       9.14000000
END griddata

