# File generated by Flopy version 3.9.1 on 05/06/2025 at 14:53:22.
BEGIN options
END options

BEGIN period  1
  PRINT  BUDGET  LAST
END period  1

